
---------- Begin Simulation Statistics ----------
simSeconds                                   3.096197                       # Number of seconds simulated (Second)
simTicks                                 3096197303000                       # Number of ticks simulated (Tick)
finalTick                                6192790494500                       # Number of ticks from beginning of simulation (restored from checkpoints and never reset) (Tick)
simFreq                                  1000000000000                       # The number of ticks per simulated second ((Tick/Second))
hostSeconds                                   1797.67                       # Real time elapsed on the host (Second)
hostTickRate                               1722339833                       # The number of ticks simulated per host second (ticks/s) ((Tick/Second))
hostMemory                                     820664                       # Number of bytes of host memory used (Byte)
simInsts                                   3185093211                       # Number of instructions simulated (Count)
simOps                                     4776160036                       # Number of ops (including micro ops) simulated (Count)
hostInstRate                                  1771790                       # Simulator instruction rate (inst/s) ((Count/Second))
hostOpRate                                    2656862                       # Simulator op (including micro ops) rate (op/s) ((Count/Second))
system.clk_domain.clock                          1000                       # Clock period in ticks (Tick)
system.cpu.numCycles                       6192394606                       # Number of cpu cycles simulated (Cycle)
system.cpu.numWorkItemsStarted                      0                       # Number of work items this cpu started (Count)
system.cpu.numWorkItemsCompleted                    0                       # Number of work items this cpu completed (Count)
system.cpu.dcache.demandHits::cpu.data      944755062                       # number of demand (read+write) hits (Count)
system.cpu.dcache.demandHits::total         944755062                       # number of demand (read+write) hits (Count)
system.cpu.dcache.overallHits::cpu.data     944755062                       # number of overall hits (Count)
system.cpu.dcache.overallHits::total        944755062                       # number of overall hits (Count)
system.cpu.dcache.demandMisses::cpu.data      2783751                       # number of demand (read+write) misses (Count)
system.cpu.dcache.demandMisses::total         2783751                       # number of demand (read+write) misses (Count)
system.cpu.dcache.overallMisses::cpu.data      2783751                       # number of overall misses (Count)
system.cpu.dcache.overallMisses::total        2783751                       # number of overall misses (Count)
system.cpu.dcache.demandMissLatency::cpu.data  92917841000                       # number of demand (read+write) miss ticks (Tick)
system.cpu.dcache.demandMissLatency::total  92917841000                       # number of demand (read+write) miss ticks (Tick)
system.cpu.dcache.overallMissLatency::cpu.data  92917841000                       # number of overall miss ticks (Tick)
system.cpu.dcache.overallMissLatency::total  92917841000                       # number of overall miss ticks (Tick)
system.cpu.dcache.demandAccesses::cpu.data    947538813                       # number of demand (read+write) accesses (Count)
system.cpu.dcache.demandAccesses::total     947538813                       # number of demand (read+write) accesses (Count)
system.cpu.dcache.overallAccesses::cpu.data    947538813                       # number of overall (read+write) accesses (Count)
system.cpu.dcache.overallAccesses::total    947538813                       # number of overall (read+write) accesses (Count)
system.cpu.dcache.demandMissRate::cpu.data     0.002938                       # miss rate for demand accesses (Ratio)
system.cpu.dcache.demandMissRate::total      0.002938                       # miss rate for demand accesses (Ratio)
system.cpu.dcache.overallMissRate::cpu.data     0.002938                       # miss rate for overall accesses (Ratio)
system.cpu.dcache.overallMissRate::total     0.002938                       # miss rate for overall accesses (Ratio)
system.cpu.dcache.demandAvgMissLatency::cpu.data 33378.646653                       # average overall miss latency in ticks ((Tick/Count))
system.cpu.dcache.demandAvgMissLatency::total 33378.646653                       # average overall miss latency in ticks ((Tick/Count))
system.cpu.dcache.overallAvgMissLatency::cpu.data 33378.646653                       # average overall miss latency ((Tick/Count))
system.cpu.dcache.overallAvgMissLatency::total 33378.646653                       # average overall miss latency ((Tick/Count))
system.cpu.dcache.blockedCycles::no_mshrs            0                       # number of cycles access was blocked (Cycle)
system.cpu.dcache.blockedCycles::no_targets            0                       # number of cycles access was blocked (Cycle)
system.cpu.dcache.blockedCauses::no_mshrs            0                       # number of times access was blocked (Count)
system.cpu.dcache.blockedCauses::no_targets            0                       # number of times access was blocked (Count)
system.cpu.dcache.avgBlocked::no_mshrs            nan                       # average number of cycles each access was blocked ((Cycle/Count))
system.cpu.dcache.avgBlocked::no_targets          nan                       # average number of cycles each access was blocked ((Cycle/Count))
system.cpu.dcache.writebacks::writebacks      2643870                       # number of writebacks (Count)
system.cpu.dcache.writebacks::total           2643870                       # number of writebacks (Count)
system.cpu.dcache.demandMshrMisses::cpu.data      2783751                       # number of demand (read+write) MSHR misses (Count)
system.cpu.dcache.demandMshrMisses::total      2783751                       # number of demand (read+write) MSHR misses (Count)
system.cpu.dcache.overallMshrMisses::cpu.data      2783751                       # number of overall MSHR misses (Count)
system.cpu.dcache.overallMshrMisses::total      2783751                       # number of overall MSHR misses (Count)
system.cpu.dcache.demandMshrMissLatency::cpu.data  90134090000                       # number of demand (read+write) MSHR miss ticks (Tick)
system.cpu.dcache.demandMshrMissLatency::total  90134090000                       # number of demand (read+write) MSHR miss ticks (Tick)
system.cpu.dcache.overallMshrMissLatency::cpu.data  90134090000                       # number of overall MSHR miss ticks (Tick)
system.cpu.dcache.overallMshrMissLatency::total  90134090000                       # number of overall MSHR miss ticks (Tick)
system.cpu.dcache.demandMshrMissRate::cpu.data     0.002938                       # mshr miss ratio for demand accesses (Ratio)
system.cpu.dcache.demandMshrMissRate::total     0.002938                       # mshr miss ratio for demand accesses (Ratio)
system.cpu.dcache.overallMshrMissRate::cpu.data     0.002938                       # mshr miss ratio for overall accesses (Ratio)
system.cpu.dcache.overallMshrMissRate::total     0.002938                       # mshr miss ratio for overall accesses (Ratio)
system.cpu.dcache.demandAvgMshrMissLatency::cpu.data 32378.646653                       # average overall mshr miss latency ((Tick/Count))
system.cpu.dcache.demandAvgMshrMissLatency::total 32378.646653                       # average overall mshr miss latency ((Tick/Count))
system.cpu.dcache.overallAvgMshrMissLatency::cpu.data 32378.646653                       # average overall mshr miss latency ((Tick/Count))
system.cpu.dcache.overallAvgMshrMissLatency::total 32378.646653                       # average overall mshr miss latency ((Tick/Count))
system.cpu.dcache.replacements                2783751                       # number of replacements (Count)
system.cpu.dcache.ReadReq.hits::cpu.data    770636966                       # number of ReadReq hits (Count)
system.cpu.dcache.ReadReq.hits::total       770636966                       # number of ReadReq hits (Count)
system.cpu.dcache.ReadReq.misses::cpu.data      2589691                       # number of ReadReq misses (Count)
system.cpu.dcache.ReadReq.misses::total       2589691                       # number of ReadReq misses (Count)
system.cpu.dcache.ReadReq.missLatency::cpu.data  81326075000                       # number of ReadReq miss ticks (Tick)
system.cpu.dcache.ReadReq.missLatency::total  81326075000                       # number of ReadReq miss ticks (Tick)
system.cpu.dcache.ReadReq.accesses::cpu.data    773226657                       # number of ReadReq accesses(hits+misses) (Count)
system.cpu.dcache.ReadReq.accesses::total    773226657                       # number of ReadReq accesses(hits+misses) (Count)
system.cpu.dcache.ReadReq.missRate::cpu.data     0.003349                       # miss rate for ReadReq accesses (Ratio)
system.cpu.dcache.ReadReq.missRate::total     0.003349                       # miss rate for ReadReq accesses (Ratio)
system.cpu.dcache.ReadReq.avgMissLatency::cpu.data 31403.775586                       # average ReadReq miss latency ((Tick/Count))
system.cpu.dcache.ReadReq.avgMissLatency::total 31403.775586                       # average ReadReq miss latency ((Tick/Count))
system.cpu.dcache.ReadReq.mshrMisses::cpu.data      2589691                       # number of ReadReq MSHR misses (Count)
system.cpu.dcache.ReadReq.mshrMisses::total      2589691                       # number of ReadReq MSHR misses (Count)
system.cpu.dcache.ReadReq.mshrMissLatency::cpu.data  78736384000                       # number of ReadReq MSHR miss ticks (Tick)
system.cpu.dcache.ReadReq.mshrMissLatency::total  78736384000                       # number of ReadReq MSHR miss ticks (Tick)
system.cpu.dcache.ReadReq.mshrMissRate::cpu.data     0.003349                       # mshr miss rate for ReadReq accesses (Ratio)
system.cpu.dcache.ReadReq.mshrMissRate::total     0.003349                       # mshr miss rate for ReadReq accesses (Ratio)
system.cpu.dcache.ReadReq.avgMshrMissLatency::cpu.data 30403.775586                       # average ReadReq mshr miss latency ((Tick/Count))
system.cpu.dcache.ReadReq.avgMshrMissLatency::total 30403.775586                       # average ReadReq mshr miss latency ((Tick/Count))
system.cpu.dcache.WriteReq.hits::cpu.data    174118096                       # number of WriteReq hits (Count)
system.cpu.dcache.WriteReq.hits::total      174118096                       # number of WriteReq hits (Count)
system.cpu.dcache.WriteReq.misses::cpu.data       194060                       # number of WriteReq misses (Count)
system.cpu.dcache.WriteReq.misses::total       194060                       # number of WriteReq misses (Count)
system.cpu.dcache.WriteReq.missLatency::cpu.data  11591766000                       # number of WriteReq miss ticks (Tick)
system.cpu.dcache.WriteReq.missLatency::total  11591766000                       # number of WriteReq miss ticks (Tick)
system.cpu.dcache.WriteReq.accesses::cpu.data    174312156                       # number of WriteReq accesses(hits+misses) (Count)
system.cpu.dcache.WriteReq.accesses::total    174312156                       # number of WriteReq accesses(hits+misses) (Count)
system.cpu.dcache.WriteReq.missRate::cpu.data     0.001113                       # miss rate for WriteReq accesses (Ratio)
system.cpu.dcache.WriteReq.missRate::total     0.001113                       # miss rate for WriteReq accesses (Ratio)
system.cpu.dcache.WriteReq.avgMissLatency::cpu.data 59732.897042                       # average WriteReq miss latency ((Tick/Count))
system.cpu.dcache.WriteReq.avgMissLatency::total 59732.897042                       # average WriteReq miss latency ((Tick/Count))
system.cpu.dcache.WriteReq.mshrMisses::cpu.data       194060                       # number of WriteReq MSHR misses (Count)
system.cpu.dcache.WriteReq.mshrMisses::total       194060                       # number of WriteReq MSHR misses (Count)
system.cpu.dcache.WriteReq.mshrMissLatency::cpu.data  11397706000                       # number of WriteReq MSHR miss ticks (Tick)
system.cpu.dcache.WriteReq.mshrMissLatency::total  11397706000                       # number of WriteReq MSHR miss ticks (Tick)
system.cpu.dcache.WriteReq.mshrMissRate::cpu.data     0.001113                       # mshr miss rate for WriteReq accesses (Ratio)
system.cpu.dcache.WriteReq.mshrMissRate::total     0.001113                       # mshr miss rate for WriteReq accesses (Ratio)
system.cpu.dcache.WriteReq.avgMshrMissLatency::cpu.data 58732.897042                       # average WriteReq mshr miss latency ((Tick/Count))
system.cpu.dcache.WriteReq.avgMshrMissLatency::total 58732.897042                       # average WriteReq mshr miss latency ((Tick/Count))
system.cpu.dcache.power_state.pwrStateResidencyTicks::UNDEFINED 6192790494500                       # Cumulative time (in ticks) in various power states (Tick)
system.cpu.dcache.tags.tagsInUse                  512                       # Average ticks per tags in use ((Tick/Count))
system.cpu.dcache.tags.totalRefs            947515525                       # Total number of references to valid blocks. (Count)
system.cpu.dcache.tags.sampledRefs            2783751                       # Sample count of references to valid blocks. (Count)
system.cpu.dcache.tags.avgRefs             340.373663                       # Average number of references to valid blocks. ((Count/Count))
system.cpu.dcache.tags.warmupTick           125507500                       # The tick when the warmup percentage was hit. (Tick)
system.cpu.dcache.tags.occupancies::cpu.data          512                       # Average occupied blocks per tick, per requestor ((Count/Tick))
system.cpu.dcache.tags.avgOccs::cpu.data            1                       # Average percentage of cache occupancy ((Ratio/Tick))
system.cpu.dcache.tags.avgOccs::total               1                       # Average percentage of cache occupancy ((Ratio/Tick))
system.cpu.dcache.tags.occupanciesTaskId::1024          512                       # Occupied blocks per task id (Count)
system.cpu.dcache.tags.ageTaskId_1024::0           40                       # Occupied blocks per task id, per block age (Count)
system.cpu.dcache.tags.ageTaskId_1024::3          465                       # Occupied blocks per task id, per block age (Count)
system.cpu.dcache.tags.ageTaskId_1024::4            7                       # Occupied blocks per task id, per block age (Count)
system.cpu.dcache.tags.ratioOccsTaskId::1024            1                       # Ratio of occupied blocks and all blocks, per task id (Ratio)
system.cpu.dcache.tags.tagAccesses         7583094255                       # Number of tag accesses (Count)
system.cpu.dcache.tags.dataAccesses        7583094255                       # Number of data accesses (Count)
system.cpu.dcache.tags.power_state.pwrStateResidencyTicks::UNDEFINED 6192790494500                       # Cumulative time (in ticks) in various power states (Tick)
system.cpu.dtb_walker_cache.blockedCycles::no_mshrs            0                       # number of cycles access was blocked (Cycle)
system.cpu.dtb_walker_cache.blockedCycles::no_targets            0                       # number of cycles access was blocked (Cycle)
system.cpu.dtb_walker_cache.blockedCauses::no_mshrs            0                       # number of times access was blocked (Count)
system.cpu.dtb_walker_cache.blockedCauses::no_targets            0                       # number of times access was blocked (Count)
system.cpu.dtb_walker_cache.avgBlocked::no_mshrs          nan                       # average number of cycles each access was blocked ((Cycle/Count))
system.cpu.dtb_walker_cache.avgBlocked::no_targets          nan                       # average number of cycles each access was blocked ((Cycle/Count))
system.cpu.dtb_walker_cache.replacements            0                       # number of replacements (Count)
system.cpu.dtb_walker_cache.power_state.pwrStateResidencyTicks::UNDEFINED 6192790494500                       # Cumulative time (in ticks) in various power states (Tick)
system.cpu.dtb_walker_cache.tags.tagsInUse            0                       # Average ticks per tags in use ((Tick/Count))
system.cpu.dtb_walker_cache.tags.totalRefs            0                       # Total number of references to valid blocks. (Count)
system.cpu.dtb_walker_cache.tags.sampledRefs            0                       # Sample count of references to valid blocks. (Count)
system.cpu.dtb_walker_cache.tags.avgRefs          nan                       # Average number of references to valid blocks. ((Count/Count))
system.cpu.dtb_walker_cache.tags.warmupTick            0                       # The tick when the warmup percentage was hit. (Tick)
system.cpu.dtb_walker_cache.tags.tagAccesses            0                       # Number of tag accesses (Count)
system.cpu.dtb_walker_cache.tags.dataAccesses            0                       # Number of data accesses (Count)
system.cpu.dtb_walker_cache.tags.power_state.pwrStateResidencyTicks::UNDEFINED 6192790494500                       # Cumulative time (in ticks) in various power states (Tick)
system.cpu.exec_context.thread_0.numInsts   1592492875                       # Number of instructions committed (Count)
system.cpu.exec_context.thread_0.numOps    2387981602                       # Number of ops (including micro ops) committed (Count)
system.cpu.exec_context.thread_0.numIntAluAccesses   2385796683                       # Number of integer alu accesses (Count)
system.cpu.exec_context.thread_0.numFpAluAccesses           46                       # Number of float alu accesses (Count)
system.cpu.exec_context.thread_0.numVecAluAccesses            0                       # Number of vector alu accesses (Count)
system.cpu.exec_context.thread_0.numCallsReturns     10369794                       # Number of times a function call or return occured (Count)
system.cpu.exec_context.thread_0.numCondCtrlInsts    134079751                       # Number of instructions that are conditional controls (Count)
system.cpu.exec_context.thread_0.numIntInsts   2385796683                       # Number of integer instructions (Count)
system.cpu.exec_context.thread_0.numFpInsts           46                       # Number of float instructions (Count)
system.cpu.exec_context.thread_0.numVecInsts            0                       # Number of vector instructions (Count)
system.cpu.exec_context.thread_0.numIntRegReads   2955977647                       # Number of times the integer registers were read (Count)
system.cpu.exec_context.thread_0.numIntRegWrites   1915110396                       # Number of times the integer registers were written (Count)
system.cpu.exec_context.thread_0.numFpRegReads           82                       # Number of times the floating registers were read (Count)
system.cpu.exec_context.thread_0.numFpRegWrites           38                       # Number of times the floating registers were written (Count)
system.cpu.exec_context.thread_0.numVecRegReads            0                       # Number of times the vector registers were read (Count)
system.cpu.exec_context.thread_0.numVecRegWrites            0                       # Number of times the vector registers were written (Count)
system.cpu.exec_context.thread_0.numVecPredRegReads            0                       # Number of times the predicate registers were read (Count)
system.cpu.exec_context.thread_0.numVecPredRegWrites            0                       # Number of times the predicate registers were written (Count)
system.cpu.exec_context.thread_0.numCCRegReads    680768789                       # Number of times the CC registers were read (Count)
system.cpu.exec_context.thread_0.numCCRegWrites    826929304                       # Number of times the CC registers were written (Count)
system.cpu.exec_context.thread_0.numMiscRegReads   1287942751                       # Number of times the Misc registers were read (Count)
system.cpu.exec_context.thread_0.numMiscRegWrites            0                       # Number of times the Misc registers were written (Count)
system.cpu.exec_context.thread_0.numMemRefs    947538813                       # Number of memory refs (Count)
system.cpu.exec_context.thread_0.numLoadInsts    773226657                       # Number of load instructions (Count)
system.cpu.exec_context.thread_0.numStoreInsts    174312156                       # Number of store instructions (Count)
system.cpu.exec_context.thread_0.numIdleCycles            0                       # Number of idle cycles (Cycle)
system.cpu.exec_context.thread_0.numBusyCycles   6192394606                       # Number of busy cycles (Cycle)
system.cpu.exec_context.thread_0.notIdleFraction            1                       # Percentage of non-idle cycles (Ratio)
system.cpu.exec_context.thread_0.idleFraction            0                       # Percentage of idle cycles (Ratio)
system.cpu.exec_context.thread_0.numBranches    165294402                       # Number of branches fetched (Count)
system.cpu.exec_context.thread_0.statExecutedInstType::No_OpClass            3      0.00%      0.00% # Class of executed instruction. (Count)
system.cpu.exec_context.thread_0.statExecutedInstType::IntAlu   1431442739     59.94%     59.94% # Class of executed instruction. (Count)
system.cpu.exec_context.thread_0.statExecutedInstType::IntMult      9000005      0.38%     60.32% # Class of executed instruction. (Count)
system.cpu.exec_context.thread_0.statExecutedInstType::IntDiv            7      0.00%     60.32% # Class of executed instruction. (Count)
system.cpu.exec_context.thread_0.statExecutedInstType::FloatAdd            2      0.00%     60.32% # Class of executed instruction. (Count)
system.cpu.exec_context.thread_0.statExecutedInstType::FloatCmp            0      0.00%     60.32% # Class of executed instruction. (Count)
system.cpu.exec_context.thread_0.statExecutedInstType::FloatCvt            0      0.00%     60.32% # Class of executed instruction. (Count)
system.cpu.exec_context.thread_0.statExecutedInstType::FloatMult            0      0.00%     60.32% # Class of executed instruction. (Count)
system.cpu.exec_context.thread_0.statExecutedInstType::FloatMultAcc            0      0.00%     60.32% # Class of executed instruction. (Count)
system.cpu.exec_context.thread_0.statExecutedInstType::FloatDiv            0      0.00%     60.32% # Class of executed instruction. (Count)
system.cpu.exec_context.thread_0.statExecutedInstType::FloatMisc            0      0.00%     60.32% # Class of executed instruction. (Count)
system.cpu.exec_context.thread_0.statExecutedInstType::FloatSqrt            0      0.00%     60.32% # Class of executed instruction. (Count)
system.cpu.exec_context.thread_0.statExecutedInstType::SimdAdd            0      0.00%     60.32% # Class of executed instruction. (Count)
system.cpu.exec_context.thread_0.statExecutedInstType::SimdAddAcc            0      0.00%     60.32% # Class of executed instruction. (Count)
system.cpu.exec_context.thread_0.statExecutedInstType::SimdAlu            4      0.00%     60.32% # Class of executed instruction. (Count)
system.cpu.exec_context.thread_0.statExecutedInstType::SimdCmp            0      0.00%     60.32% # Class of executed instruction. (Count)
system.cpu.exec_context.thread_0.statExecutedInstType::SimdCvt            8      0.00%     60.32% # Class of executed instruction. (Count)
system.cpu.exec_context.thread_0.statExecutedInstType::SimdMisc           22      0.00%     60.32% # Class of executed instruction. (Count)
system.cpu.exec_context.thread_0.statExecutedInstType::SimdMult            0      0.00%     60.32% # Class of executed instruction. (Count)
system.cpu.exec_context.thread_0.statExecutedInstType::SimdMultAcc            0      0.00%     60.32% # Class of executed instruction. (Count)
system.cpu.exec_context.thread_0.statExecutedInstType::SimdShift            0      0.00%     60.32% # Class of executed instruction. (Count)
system.cpu.exec_context.thread_0.statExecutedInstType::SimdShiftAcc            0      0.00%     60.32% # Class of executed instruction. (Count)
system.cpu.exec_context.thread_0.statExecutedInstType::SimdDiv            0      0.00%     60.32% # Class of executed instruction. (Count)
system.cpu.exec_context.thread_0.statExecutedInstType::SimdSqrt            0      0.00%     60.32% # Class of executed instruction. (Count)
system.cpu.exec_context.thread_0.statExecutedInstType::SimdFloatAdd            0      0.00%     60.32% # Class of executed instruction. (Count)
system.cpu.exec_context.thread_0.statExecutedInstType::SimdFloatAlu            0      0.00%     60.32% # Class of executed instruction. (Count)
system.cpu.exec_context.thread_0.statExecutedInstType::SimdFloatCmp            0      0.00%     60.32% # Class of executed instruction. (Count)
system.cpu.exec_context.thread_0.statExecutedInstType::SimdFloatCvt            0      0.00%     60.32% # Class of executed instruction. (Count)
system.cpu.exec_context.thread_0.statExecutedInstType::SimdFloatDiv            0      0.00%     60.32% # Class of executed instruction. (Count)
system.cpu.exec_context.thread_0.statExecutedInstType::SimdFloatMisc            0      0.00%     60.32% # Class of executed instruction. (Count)
system.cpu.exec_context.thread_0.statExecutedInstType::SimdFloatMult            0      0.00%     60.32% # Class of executed instruction. (Count)
system.cpu.exec_context.thread_0.statExecutedInstType::SimdFloatMultAcc            0      0.00%     60.32% # Class of executed instruction. (Count)
system.cpu.exec_context.thread_0.statExecutedInstType::SimdFloatSqrt            0      0.00%     60.32% # Class of executed instruction. (Count)
system.cpu.exec_context.thread_0.statExecutedInstType::SimdReduceAdd            0      0.00%     60.32% # Class of executed instruction. (Count)
system.cpu.exec_context.thread_0.statExecutedInstType::SimdReduceAlu            0      0.00%     60.32% # Class of executed instruction. (Count)
system.cpu.exec_context.thread_0.statExecutedInstType::SimdReduceCmp            0      0.00%     60.32% # Class of executed instruction. (Count)
system.cpu.exec_context.thread_0.statExecutedInstType::SimdFloatReduceAdd            0      0.00%     60.32% # Class of executed instruction. (Count)
system.cpu.exec_context.thread_0.statExecutedInstType::SimdFloatReduceCmp            0      0.00%     60.32% # Class of executed instruction. (Count)
system.cpu.exec_context.thread_0.statExecutedInstType::SimdAes            0      0.00%     60.32% # Class of executed instruction. (Count)
system.cpu.exec_context.thread_0.statExecutedInstType::SimdAesMix            0      0.00%     60.32% # Class of executed instruction. (Count)
system.cpu.exec_context.thread_0.statExecutedInstType::SimdSha1Hash            0      0.00%     60.32% # Class of executed instruction. (Count)
system.cpu.exec_context.thread_0.statExecutedInstType::SimdSha1Hash2            0      0.00%     60.32% # Class of executed instruction. (Count)
system.cpu.exec_context.thread_0.statExecutedInstType::SimdSha256Hash            0      0.00%     60.32% # Class of executed instruction. (Count)
system.cpu.exec_context.thread_0.statExecutedInstType::SimdSha256Hash2            0      0.00%     60.32% # Class of executed instruction. (Count)
system.cpu.exec_context.thread_0.statExecutedInstType::SimdShaSigma2            0      0.00%     60.32% # Class of executed instruction. (Count)
system.cpu.exec_context.thread_0.statExecutedInstType::SimdShaSigma3            0      0.00%     60.32% # Class of executed instruction. (Count)
system.cpu.exec_context.thread_0.statExecutedInstType::SimdPredAlu            0      0.00%     60.32% # Class of executed instruction. (Count)
system.cpu.exec_context.thread_0.statExecutedInstType::MemRead    773226653     32.38%     92.70% # Class of executed instruction. (Count)
system.cpu.exec_context.thread_0.statExecutedInstType::MemWrite    174312156      7.30%    100.00% # Class of executed instruction. (Count)
system.cpu.exec_context.thread_0.statExecutedInstType::FloatMemRead            4      0.00%    100.00% # Class of executed instruction. (Count)
system.cpu.exec_context.thread_0.statExecutedInstType::FloatMemWrite            0      0.00%    100.00% # Class of executed instruction. (Count)
system.cpu.exec_context.thread_0.statExecutedInstType::IprAccess            0      0.00%    100.00% # Class of executed instruction. (Count)
system.cpu.exec_context.thread_0.statExecutedInstType::InstPrefetch            0      0.00%    100.00% # Class of executed instruction. (Count)
system.cpu.exec_context.thread_0.statExecutedInstType::total   2387981603                       # Class of executed instruction. (Count)
system.cpu.icache.demandHits::cpu.inst     2058524400                       # number of demand (read+write) hits (Count)
system.cpu.icache.demandHits::total        2058524400                       # number of demand (read+write) hits (Count)
system.cpu.icache.overallHits::cpu.inst    2058524400                       # number of overall hits (Count)
system.cpu.icache.overallHits::total       2058524400                       # number of overall hits (Count)
system.cpu.icache.demandAccesses::cpu.inst   2058524400                       # number of demand (read+write) accesses (Count)
system.cpu.icache.demandAccesses::total    2058524400                       # number of demand (read+write) accesses (Count)
system.cpu.icache.overallAccesses::cpu.inst   2058524400                       # number of overall (read+write) accesses (Count)
system.cpu.icache.overallAccesses::total   2058524400                       # number of overall (read+write) accesses (Count)
system.cpu.icache.blockedCycles::no_mshrs            0                       # number of cycles access was blocked (Cycle)
system.cpu.icache.blockedCycles::no_targets            0                       # number of cycles access was blocked (Cycle)
system.cpu.icache.blockedCauses::no_mshrs            0                       # number of times access was blocked (Count)
system.cpu.icache.blockedCauses::no_targets            0                       # number of times access was blocked (Count)
system.cpu.icache.avgBlocked::no_mshrs            nan                       # average number of cycles each access was blocked ((Cycle/Count))
system.cpu.icache.avgBlocked::no_targets          nan                       # average number of cycles each access was blocked ((Cycle/Count))
system.cpu.icache.replacements                      0                       # number of replacements (Count)
system.cpu.icache.ReadReq.hits::cpu.inst   2058524400                       # number of ReadReq hits (Count)
system.cpu.icache.ReadReq.hits::total      2058524400                       # number of ReadReq hits (Count)
system.cpu.icache.ReadReq.accesses::cpu.inst   2058524400                       # number of ReadReq accesses(hits+misses) (Count)
system.cpu.icache.ReadReq.accesses::total   2058524400                       # number of ReadReq accesses(hits+misses) (Count)
system.cpu.icache.power_state.pwrStateResidencyTicks::UNDEFINED 6192790494500                       # Cumulative time (in ticks) in various power states (Tick)
system.cpu.icache.tags.tagsInUse                  505                       # Average ticks per tags in use ((Tick/Count))
system.cpu.icache.tags.totalRefs                    0                       # Total number of references to valid blocks. (Count)
system.cpu.icache.tags.sampledRefs                  0                       # Sample count of references to valid blocks. (Count)
system.cpu.icache.tags.avgRefs                    nan                       # Average number of references to valid blocks. ((Count/Count))
system.cpu.icache.tags.warmupTick                   0                       # The tick when the warmup percentage was hit. (Tick)
system.cpu.icache.tags.occupancies::cpu.inst          505                       # Average occupied blocks per tick, per requestor ((Count/Tick))
system.cpu.icache.tags.avgOccs::cpu.inst     0.986328                       # Average percentage of cache occupancy ((Ratio/Tick))
system.cpu.icache.tags.avgOccs::total        0.986328                       # Average percentage of cache occupancy ((Ratio/Tick))
system.cpu.icache.tags.occupanciesTaskId::1024          505                       # Occupied blocks per task id (Count)
system.cpu.icache.tags.ageTaskId_1024::4          505                       # Occupied blocks per task id, per block age (Count)
system.cpu.icache.tags.ratioOccsTaskId::1024     0.986328                       # Ratio of occupied blocks and all blocks, per task id (Ratio)
system.cpu.icache.tags.tagAccesses        16468195200                       # Number of tag accesses (Count)
system.cpu.icache.tags.dataAccesses       16468195200                       # Number of data accesses (Count)
system.cpu.icache.tags.power_state.pwrStateResidencyTicks::UNDEFINED 6192790494500                       # Cumulative time (in ticks) in various power states (Tick)
system.cpu.interrupts.clk_domain.clock           8000                       # Clock period in ticks (Tick)
system.cpu.itb_walker_cache.blockedCycles::no_mshrs            0                       # number of cycles access was blocked (Cycle)
system.cpu.itb_walker_cache.blockedCycles::no_targets            0                       # number of cycles access was blocked (Cycle)
system.cpu.itb_walker_cache.blockedCauses::no_mshrs            0                       # number of times access was blocked (Count)
system.cpu.itb_walker_cache.blockedCauses::no_targets            0                       # number of times access was blocked (Count)
system.cpu.itb_walker_cache.avgBlocked::no_mshrs          nan                       # average number of cycles each access was blocked ((Cycle/Count))
system.cpu.itb_walker_cache.avgBlocked::no_targets          nan                       # average number of cycles each access was blocked ((Cycle/Count))
system.cpu.itb_walker_cache.replacements            0                       # number of replacements (Count)
system.cpu.itb_walker_cache.power_state.pwrStateResidencyTicks::UNDEFINED 6192790494500                       # Cumulative time (in ticks) in various power states (Tick)
system.cpu.itb_walker_cache.tags.tagsInUse            0                       # Average ticks per tags in use ((Tick/Count))
system.cpu.itb_walker_cache.tags.totalRefs            0                       # Total number of references to valid blocks. (Count)
system.cpu.itb_walker_cache.tags.sampledRefs            0                       # Sample count of references to valid blocks. (Count)
system.cpu.itb_walker_cache.tags.avgRefs          nan                       # Average number of references to valid blocks. ((Count/Count))
system.cpu.itb_walker_cache.tags.warmupTick            0                       # The tick when the warmup percentage was hit. (Tick)
system.cpu.itb_walker_cache.tags.tagAccesses            0                       # Number of tag accesses (Count)
system.cpu.itb_walker_cache.tags.dataAccesses            0                       # Number of data accesses (Count)
system.cpu.itb_walker_cache.tags.power_state.pwrStateResidencyTicks::UNDEFINED 6192790494500                       # Cumulative time (in ticks) in various power states (Tick)
system.cpu.mmu.dtb.rdAccesses               773226657                       # TLB accesses on read requests (Count)
system.cpu.mmu.dtb.wrAccesses               174312156                       # TLB accesses on write requests (Count)
system.cpu.mmu.dtb.rdMisses                     28420                       # TLB misses on read requests (Count)
system.cpu.mmu.dtb.wrMisses                      2930                       # TLB misses on write requests (Count)
system.cpu.mmu.dtb.walker.power_state.pwrStateResidencyTicks::UNDEFINED 6192790494500                       # Cumulative time (in ticks) in various power states (Tick)
system.cpu.mmu.itb.rdAccesses                       0                       # TLB accesses on read requests (Count)
system.cpu.mmu.itb.wrAccesses              2058524400                       # TLB accesses on write requests (Count)
system.cpu.mmu.itb.rdMisses                         0                       # TLB misses on read requests (Count)
system.cpu.mmu.itb.wrMisses                         0                       # TLB misses on write requests (Count)
system.cpu.mmu.itb.walker.power_state.pwrStateResidencyTicks::UNDEFINED 6192790494500                       # Cumulative time (in ticks) in various power states (Tick)
system.cpu.power_state.pwrStateResidencyTicks::ON 6192790494500                       # Cumulative time (in ticks) in various power states (Tick)
system.cpu.thread_0.numInsts                        0                       # Number of Instructions committed (Count)
system.cpu.thread_0.numOps                          0                       # Number of Ops committed (Count)
system.cpu.thread_0.numMemRefs                      0                       # Number of Memory References (Count)
system.cpu.workload.numSyscalls                     1                       # Number of system calls (Count)
system.cpu_clk_domain.clock                       500                       # Clock period in ticks (Tick)
system.cpu_voltage_domain.voltage                   1                       # Voltage in Volts (Volt)
system.l2.demandHits::cpu.data                2192289                       # number of demand (read+write) hits (Count)
system.l2.demandHits::total                   2192289                       # number of demand (read+write) hits (Count)
system.l2.overallHits::cpu.data               2192289                       # number of overall hits (Count)
system.l2.overallHits::total                  2192289                       # number of overall hits (Count)
system.l2.demandMisses::cpu.data               591462                       # number of demand (read+write) misses (Count)
system.l2.demandMisses::total                  591462                       # number of demand (read+write) misses (Count)
system.l2.overallMisses::cpu.data              591462                       # number of overall misses (Count)
system.l2.overallMisses::total                 591462                       # number of overall misses (Count)
system.l2.demandMissLatency::cpu.data     62939429000                       # number of demand (read+write) miss ticks (Tick)
system.l2.demandMissLatency::total        62939429000                       # number of demand (read+write) miss ticks (Tick)
system.l2.overallMissLatency::cpu.data    62939429000                       # number of overall miss ticks (Tick)
system.l2.overallMissLatency::total       62939429000                       # number of overall miss ticks (Tick)
system.l2.demandAccesses::cpu.data            2783751                       # number of demand (read+write) accesses (Count)
system.l2.demandAccesses::total               2783751                       # number of demand (read+write) accesses (Count)
system.l2.overallAccesses::cpu.data           2783751                       # number of overall (read+write) accesses (Count)
system.l2.overallAccesses::total              2783751                       # number of overall (read+write) accesses (Count)
system.l2.demandMissRate::cpu.data           0.212469                       # miss rate for demand accesses (Ratio)
system.l2.demandMissRate::total              0.212469                       # miss rate for demand accesses (Ratio)
system.l2.overallMissRate::cpu.data          0.212469                       # miss rate for overall accesses (Ratio)
system.l2.overallMissRate::total             0.212469                       # miss rate for overall accesses (Ratio)
system.l2.demandAvgMissLatency::cpu.data 106413.309731                       # average overall miss latency in ticks ((Tick/Count))
system.l2.demandAvgMissLatency::total    106413.309731                       # average overall miss latency in ticks ((Tick/Count))
system.l2.overallAvgMissLatency::cpu.data 106413.309731                       # average overall miss latency ((Tick/Count))
system.l2.overallAvgMissLatency::total   106413.309731                       # average overall miss latency ((Tick/Count))
system.l2.blockedCycles::no_mshrs                   0                       # number of cycles access was blocked (Cycle)
system.l2.blockedCycles::no_targets                 0                       # number of cycles access was blocked (Cycle)
system.l2.blockedCauses::no_mshrs                   0                       # number of times access was blocked (Count)
system.l2.blockedCauses::no_targets                 0                       # number of times access was blocked (Count)
system.l2.avgBlocked::no_mshrs                    nan                       # average number of cycles each access was blocked ((Cycle/Count))
system.l2.avgBlocked::no_targets                  nan                       # average number of cycles each access was blocked ((Cycle/Count))
system.l2.writebacks::writebacks              1086157                       # number of writebacks (Count)
system.l2.writebacks::total                   1086157                       # number of writebacks (Count)
system.l2.demandMshrMisses::cpu.data           591462                       # number of demand (read+write) MSHR misses (Count)
system.l2.demandMshrMisses::total              591462                       # number of demand (read+write) MSHR misses (Count)
system.l2.overallMshrMisses::cpu.data          591462                       # number of overall MSHR misses (Count)
system.l2.overallMshrMisses::l2.prefetcher       591146                       # number of overall MSHR misses (Count)
system.l2.overallMshrMisses::total            1182608                       # number of overall MSHR misses (Count)
system.l2.demandMshrMissLatency::cpu.data  57024809000                       # number of demand (read+write) MSHR miss ticks (Tick)
system.l2.demandMshrMissLatency::total    57024809000                       # number of demand (read+write) MSHR miss ticks (Tick)
system.l2.overallMshrMissLatency::cpu.data  57024809000                       # number of overall MSHR miss ticks (Tick)
system.l2.overallMshrMissLatency::l2.prefetcher  55092137611                       # number of overall MSHR miss ticks (Tick)
system.l2.overallMshrMissLatency::total  112116946611                       # number of overall MSHR miss ticks (Tick)
system.l2.demandMshrMissRate::cpu.data       0.212469                       # mshr miss ratio for demand accesses (Ratio)
system.l2.demandMshrMissRate::total          0.212469                       # mshr miss ratio for demand accesses (Ratio)
system.l2.overallMshrMissRate::cpu.data      0.212469                       # mshr miss ratio for overall accesses (Ratio)
system.l2.overallMshrMissRate::l2.prefetcher          inf                       # mshr miss ratio for overall accesses (Ratio)
system.l2.overallMshrMissRate::total         0.424825                       # mshr miss ratio for overall accesses (Ratio)
system.l2.demandAvgMshrMissLatency::cpu.data 96413.309731                       # average overall mshr miss latency ((Tick/Count))
system.l2.demandAvgMshrMissLatency::total 96413.309731                       # average overall mshr miss latency ((Tick/Count))
system.l2.overallAvgMshrMissLatency::cpu.data 96413.309731                       # average overall mshr miss latency ((Tick/Count))
system.l2.overallAvgMshrMissLatency::l2.prefetcher 93195.484045                       # average overall mshr miss latency ((Tick/Count))
system.l2.overallAvgMshrMissLatency::total 94804.826799                       # average overall mshr miss latency ((Tick/Count))
system.l2.replacements                        1182624                       # number of replacements (Count)
system.l2.HardPFReq.mshrMisses::l2.prefetcher       591146                       # number of HardPFReq MSHR misses (Count)
system.l2.HardPFReq.mshrMisses::total          591146                       # number of HardPFReq MSHR misses (Count)
system.l2.HardPFReq.mshrMissLatency::l2.prefetcher  55092137611                       # number of HardPFReq MSHR miss ticks (Tick)
system.l2.HardPFReq.mshrMissLatency::total  55092137611                       # number of HardPFReq MSHR miss ticks (Tick)
system.l2.HardPFReq.mshrMissRate::l2.prefetcher          inf                       # mshr miss rate for HardPFReq accesses (Ratio)
system.l2.HardPFReq.mshrMissRate::total           inf                       # mshr miss rate for HardPFReq accesses (Ratio)
system.l2.HardPFReq.avgMshrMissLatency::l2.prefetcher 93195.484045                       # average HardPFReq mshr miss latency ((Tick/Count))
system.l2.HardPFReq.avgMshrMissLatency::total 93195.484045                       # average HardPFReq mshr miss latency ((Tick/Count))
system.l2.ReadExReq.hits::cpu.data             100089                       # number of ReadExReq hits (Count)
system.l2.ReadExReq.hits::total                100089                       # number of ReadExReq hits (Count)
system.l2.ReadExReq.misses::cpu.data            93971                       # number of ReadExReq misses (Count)
system.l2.ReadExReq.misses::total               93971                       # number of ReadExReq misses (Count)
system.l2.ReadExReq.missLatency::cpu.data  10055681500                       # number of ReadExReq miss ticks (Tick)
system.l2.ReadExReq.missLatency::total    10055681500                       # number of ReadExReq miss ticks (Tick)
system.l2.ReadExReq.accesses::cpu.data         194060                       # number of ReadExReq accesses(hits+misses) (Count)
system.l2.ReadExReq.accesses::total            194060                       # number of ReadExReq accesses(hits+misses) (Count)
system.l2.ReadExReq.missRate::cpu.data       0.484237                       # miss rate for ReadExReq accesses (Ratio)
system.l2.ReadExReq.missRate::total          0.484237                       # miss rate for ReadExReq accesses (Ratio)
system.l2.ReadExReq.avgMissLatency::cpu.data 107008.348320                       # average ReadExReq miss latency ((Tick/Count))
system.l2.ReadExReq.avgMissLatency::total 107008.348320                       # average ReadExReq miss latency ((Tick/Count))
system.l2.ReadExReq.mshrMisses::cpu.data        93971                       # number of ReadExReq MSHR misses (Count)
system.l2.ReadExReq.mshrMisses::total           93971                       # number of ReadExReq MSHR misses (Count)
system.l2.ReadExReq.mshrMissLatency::cpu.data   9115971500                       # number of ReadExReq MSHR miss ticks (Tick)
system.l2.ReadExReq.mshrMissLatency::total   9115971500                       # number of ReadExReq MSHR miss ticks (Tick)
system.l2.ReadExReq.mshrMissRate::cpu.data     0.484237                       # mshr miss rate for ReadExReq accesses (Ratio)
system.l2.ReadExReq.mshrMissRate::total      0.484237                       # mshr miss rate for ReadExReq accesses (Ratio)
system.l2.ReadExReq.avgMshrMissLatency::cpu.data 97008.348320                       # average ReadExReq mshr miss latency ((Tick/Count))
system.l2.ReadExReq.avgMshrMissLatency::total 97008.348320                       # average ReadExReq mshr miss latency ((Tick/Count))
system.l2.ReadSharedReq.hits::cpu.data        2092200                       # number of ReadSharedReq hits (Count)
system.l2.ReadSharedReq.hits::total           2092200                       # number of ReadSharedReq hits (Count)
system.l2.ReadSharedReq.misses::cpu.data       497491                       # number of ReadSharedReq misses (Count)
system.l2.ReadSharedReq.misses::total          497491                       # number of ReadSharedReq misses (Count)
system.l2.ReadSharedReq.missLatency::cpu.data  52883747500                       # number of ReadSharedReq miss ticks (Tick)
system.l2.ReadSharedReq.missLatency::total  52883747500                       # number of ReadSharedReq miss ticks (Tick)
system.l2.ReadSharedReq.accesses::cpu.data      2589691                       # number of ReadSharedReq accesses(hits+misses) (Count)
system.l2.ReadSharedReq.accesses::total       2589691                       # number of ReadSharedReq accesses(hits+misses) (Count)
system.l2.ReadSharedReq.missRate::cpu.data     0.192104                       # miss rate for ReadSharedReq accesses (Ratio)
system.l2.ReadSharedReq.missRate::total      0.192104                       # miss rate for ReadSharedReq accesses (Ratio)
system.l2.ReadSharedReq.avgMissLatency::cpu.data 106300.912981                       # average ReadSharedReq miss latency ((Tick/Count))
system.l2.ReadSharedReq.avgMissLatency::total 106300.912981                       # average ReadSharedReq miss latency ((Tick/Count))
system.l2.ReadSharedReq.mshrMisses::cpu.data       497491                       # number of ReadSharedReq MSHR misses (Count)
system.l2.ReadSharedReq.mshrMisses::total       497491                       # number of ReadSharedReq MSHR misses (Count)
system.l2.ReadSharedReq.mshrMissLatency::cpu.data  47908837500                       # number of ReadSharedReq MSHR miss ticks (Tick)
system.l2.ReadSharedReq.mshrMissLatency::total  47908837500                       # number of ReadSharedReq MSHR miss ticks (Tick)
system.l2.ReadSharedReq.mshrMissRate::cpu.data     0.192104                       # mshr miss rate for ReadSharedReq accesses (Ratio)
system.l2.ReadSharedReq.mshrMissRate::total     0.192104                       # mshr miss rate for ReadSharedReq accesses (Ratio)
system.l2.ReadSharedReq.avgMshrMissLatency::cpu.data 96300.912981                       # average ReadSharedReq mshr miss latency ((Tick/Count))
system.l2.ReadSharedReq.avgMshrMissLatency::total 96300.912981                       # average ReadSharedReq mshr miss latency ((Tick/Count))
system.l2.WritebackDirty.hits::writebacks      2643870                       # number of WritebackDirty hits (Count)
system.l2.WritebackDirty.hits::total          2643870                       # number of WritebackDirty hits (Count)
system.l2.WritebackDirty.accesses::writebacks      2643870                       # number of WritebackDirty accesses(hits+misses) (Count)
system.l2.WritebackDirty.accesses::total      2643870                       # number of WritebackDirty accesses(hits+misses) (Count)
system.l2.power_state.pwrStateResidencyTicks::UNDEFINED 6192790494500                       # Cumulative time (in ticks) in various power states (Tick)
system.l2.prefetcher.demandMshrMisses          591462                       # demands not covered by prefetchs (Count)
system.l2.prefetcher.pfIssued                  591504                       # number of hwpf issued (Count)
system.l2.prefetcher.pfUnused                       9                       # number of HardPF blocks evicted w/o reference (Count)
system.l2.prefetcher.pfUseful                  591137                       # number of useful prefetch (Count)
system.l2.prefetcher.pfUsefulButMiss                0                       # number of hit on prefetch but cache block is not in an usable state (Count)
system.l2.prefetcher.accuracy                0.999380                       # accuracy of the prefetcher (Count)
system.l2.prefetcher.coverage                0.499863                       # coverage brought by this prefetcher (Count)
system.l2.prefetcher.pfHitInCache                 358                       # number of prefetches hitting in cache (Count)
system.l2.prefetcher.pfHitInMSHR                    0                       # number of prefetches hitting in a MSHR (Count)
system.l2.prefetcher.pfHitInWB                      0                       # number of prefetches hit in the Write Buffer (Count)
system.l2.prefetcher.pfLate                       358                       # number of late prefetches (hitting in cache, MSHR or WB) (Count)
system.l2.prefetcher.pfIdentified              591504                       # number of prefetch candidates identified (Count)
system.l2.prefetcher.pfBufferHit                    0                       # number of redundant prefetches already in prefetch queue (Count)
system.l2.prefetcher.pfInCache                      0                       # number of redundant prefetches already in cache/mshr dropped (Count)
system.l2.prefetcher.pfRemovedDemand                0                       # number of prefetches dropped due to a demand for the same address (Count)
system.l2.prefetcher.pfRemovedFull                  0                       # number of prefetches dropped due to prefetch queue size (Count)
system.l2.prefetcher.pfSpanPage                   136                       # number of prefetches that crossed the page (Count)
system.l2.prefetcher.pfUsefulSpanPage               0                       # number of prefetches that is useful and crossed the page (Count)
system.l2.prefetcher.power_state.pwrStateResidencyTicks::UNDEFINED 6192790494500                       # Cumulative time (in ticks) in various power states (Tick)
system.l2.tags.tagsInUse                        32768                       # Average ticks per tags in use ((Tick/Count))
system.l2.tags.totalRefs                      6151011                       # Total number of references to valid blocks. (Count)
system.l2.tags.sampledRefs                    1182624                       # Sample count of references to valid blocks. (Count)
system.l2.tags.avgRefs                       5.201155                       # Average number of references to valid blocks. ((Count/Count))
system.l2.tags.warmupTick                 45263565000                       # The tick when the warmup percentage was hit. (Tick)
system.l2.tags.occupancies::writebacks       2.292007                       # Average occupied blocks per tick, per requestor ((Count/Tick))
system.l2.tags.occupancies::cpu.inst         1.429766                       # Average occupied blocks per tick, per requestor ((Count/Tick))
system.l2.tags.occupancies::cpu.data     16392.953398                       # Average occupied blocks per tick, per requestor ((Count/Tick))
system.l2.tags.occupancies::l2.prefetcher 16371.324829                       # Average occupied blocks per tick, per requestor ((Count/Tick))
system.l2.tags.avgOccs::writebacks           0.000070                       # Average percentage of cache occupancy ((Ratio/Tick))
system.l2.tags.avgOccs::cpu.inst             0.000044                       # Average percentage of cache occupancy ((Ratio/Tick))
system.l2.tags.avgOccs::cpu.data             0.500273                       # Average percentage of cache occupancy ((Ratio/Tick))
system.l2.tags.avgOccs::l2.prefetcher        0.499613                       # Average percentage of cache occupancy ((Ratio/Tick))
system.l2.tags.avgOccs::total                1.000000                       # Average percentage of cache occupancy ((Ratio/Tick))
system.l2.tags.occupanciesTaskId::1022          16352                       # Occupied blocks per task id (Count)
system.l2.tags.occupanciesTaskId::1024          16416                       # Occupied blocks per task id (Count)
system.l2.tags.ageTaskId_1022::4                16352                       # Occupied blocks per task id, per block age (Count)
system.l2.tags.ageTaskId_1024::0                   30                       # Occupied blocks per task id, per block age (Count)
system.l2.tags.ageTaskId_1024::4                16386                       # Occupied blocks per task id, per block age (Count)
system.l2.tags.ratioOccsTaskId::1022         0.499023                       # Ratio of occupied blocks and all blocks, per task id (Ratio)
system.l2.tags.ratioOccsTaskId::1024         0.500977                       # Ratio of occupied blocks and all blocks, per task id (Ratio)
system.l2.tags.tagAccesses                   90262640                       # Number of tag accesses (Count)
system.l2.tags.dataAccesses                  90262640                       # Number of data accesses (Count)
system.l2.tags.power_state.pwrStateResidencyTicks::UNDEFINED 6192790494500                       # Cumulative time (in ticks) in various power states (Tick)
system.mem_ctrls.avgPriority_writebacks::samples   2172316.00                       # Average QoS priority value for accepted requests (Count)
system.mem_ctrls.avgPriority_cpu.data::samples   1182828.00                       # Average QoS priority value for accepted requests (Count)
system.mem_ctrls.avgPriority_l2.prefetcher::samples   1182272.00                       # Average QoS priority value for accepted requests (Count)
system.mem_ctrls.priorityMinLatency      0.000000022500                       # per QoS priority minimum request to response latency (Second)
system.mem_ctrls.priorityMaxLatency      0.742936721500                       # per QoS priority maximum request to response latency (Second)
system.mem_ctrls.numReadWriteTurnArounds       109163                       # Number of turnarounds from READ to WRITE (Count)
system.mem_ctrls.numWriteReadTurnArounds       109163                       # Number of turnarounds from WRITE to READ (Count)
system.mem_ctrls.numStayReadState             4960055                       # Number of times bus staying in READ state (Count)
system.mem_ctrls.numStayWriteState            2068119                       # Number of times bus staying in WRITE state (Count)
system.mem_ctrls.readReqs                     1182608                       # Number of read requests accepted (Count)
system.mem_ctrls.writeReqs                    1086158                       # Number of write requests accepted (Count)
system.mem_ctrls.readBursts                   2365216                       # Number of controller read bursts, including those serviced by the write queue (Count)
system.mem_ctrls.writeBursts                  2172316                       # Number of controller write bursts, including those merged in the write queue (Count)
system.mem_ctrls.servicedByWrQ                    116                       # Number of controller read bursts serviced by the write queue (Count)
system.mem_ctrls.mergedWrBursts                     0                       # Number of controller write bursts merged with an existing one (Count)
system.mem_ctrls.neitherReadNorWriteReqs            0                       # Number of requests that are neither read nor write (Count)
system.mem_ctrls.avgRdQLen                       3.73                       # Average read queue length when enqueuing ((Count/Tick))
system.mem_ctrls.avgWrQLen                      25.05                       # Average write queue length when enqueuing ((Count/Tick))
system.mem_ctrls.numRdRetry                         0                       # Number of times read queue was full causing retry (Count)
system.mem_ctrls.numWrRetry                         0                       # Number of times write queue was full causing retry (Count)
system.mem_ctrls.readPktSize::0                     0                       # Read request sizes (log2) (Count)
system.mem_ctrls.readPktSize::1                     0                       # Read request sizes (log2) (Count)
system.mem_ctrls.readPktSize::2                     0                       # Read request sizes (log2) (Count)
system.mem_ctrls.readPktSize::3                     0                       # Read request sizes (log2) (Count)
system.mem_ctrls.readPktSize::4                     0                       # Read request sizes (log2) (Count)
system.mem_ctrls.readPktSize::5               2365216                       # Read request sizes (log2) (Count)
system.mem_ctrls.readPktSize::6                     0                       # Read request sizes (log2) (Count)
system.mem_ctrls.writePktSize::0                    0                       # Write request sizes (log2) (Count)
system.mem_ctrls.writePktSize::1                    0                       # Write request sizes (log2) (Count)
system.mem_ctrls.writePktSize::2                    0                       # Write request sizes (log2) (Count)
system.mem_ctrls.writePktSize::3                    0                       # Write request sizes (log2) (Count)
system.mem_ctrls.writePktSize::4                    0                       # Write request sizes (log2) (Count)
system.mem_ctrls.writePktSize::5              2172316                       # Write request sizes (log2) (Count)
system.mem_ctrls.writePktSize::6                    0                       # Write request sizes (log2) (Count)
system.mem_ctrls.rdQLenPdf::0                  591421                       # What read queue length does an incoming req see (Count)
system.mem_ctrls.rdQLenPdf::1                  591419                       # What read queue length does an incoming req see (Count)
system.mem_ctrls.rdQLenPdf::2                  147834                       # What read queue length does an incoming req see (Count)
system.mem_ctrls.rdQLenPdf::3                  147833                       # What read queue length does an incoming req see (Count)
system.mem_ctrls.rdQLenPdf::4                  147814                       # What read queue length does an incoming req see (Count)
system.mem_ctrls.rdQLenPdf::5                  147813                       # What read queue length does an incoming req see (Count)
system.mem_ctrls.rdQLenPdf::6                  147779                       # What read queue length does an incoming req see (Count)
system.mem_ctrls.rdQLenPdf::7                  147778                       # What read queue length does an incoming req see (Count)
system.mem_ctrls.rdQLenPdf::8                  147705                       # What read queue length does an incoming req see (Count)
system.mem_ctrls.rdQLenPdf::9                  147704                       # What read queue length does an incoming req see (Count)
system.mem_ctrls.rdQLenPdf::10                      0                       # What read queue length does an incoming req see (Count)
system.mem_ctrls.rdQLenPdf::11                      0                       # What read queue length does an incoming req see (Count)
system.mem_ctrls.rdQLenPdf::12                      0                       # What read queue length does an incoming req see (Count)
system.mem_ctrls.rdQLenPdf::13                      0                       # What read queue length does an incoming req see (Count)
system.mem_ctrls.rdQLenPdf::14                      0                       # What read queue length does an incoming req see (Count)
system.mem_ctrls.rdQLenPdf::15                      0                       # What read queue length does an incoming req see (Count)
system.mem_ctrls.rdQLenPdf::16                      0                       # What read queue length does an incoming req see (Count)
system.mem_ctrls.rdQLenPdf::17                      0                       # What read queue length does an incoming req see (Count)
system.mem_ctrls.rdQLenPdf::18                      0                       # What read queue length does an incoming req see (Count)
system.mem_ctrls.rdQLenPdf::19                      0                       # What read queue length does an incoming req see (Count)
system.mem_ctrls.rdQLenPdf::20                      0                       # What read queue length does an incoming req see (Count)
system.mem_ctrls.rdQLenPdf::21                      0                       # What read queue length does an incoming req see (Count)
system.mem_ctrls.rdQLenPdf::22                      0                       # What read queue length does an incoming req see (Count)
system.mem_ctrls.rdQLenPdf::23                      0                       # What read queue length does an incoming req see (Count)
system.mem_ctrls.rdQLenPdf::24                      0                       # What read queue length does an incoming req see (Count)
system.mem_ctrls.rdQLenPdf::25                      0                       # What read queue length does an incoming req see (Count)
system.mem_ctrls.rdQLenPdf::26                      0                       # What read queue length does an incoming req see (Count)
system.mem_ctrls.rdQLenPdf::27                      0                       # What read queue length does an incoming req see (Count)
system.mem_ctrls.rdQLenPdf::28                      0                       # What read queue length does an incoming req see (Count)
system.mem_ctrls.rdQLenPdf::29                      0                       # What read queue length does an incoming req see (Count)
system.mem_ctrls.rdQLenPdf::30                      0                       # What read queue length does an incoming req see (Count)
system.mem_ctrls.rdQLenPdf::31                      0                       # What read queue length does an incoming req see (Count)
system.mem_ctrls.wrQLenPdf::0                       0                       # What write queue length does an incoming req see (Count)
system.mem_ctrls.wrQLenPdf::1                       0                       # What write queue length does an incoming req see (Count)
system.mem_ctrls.wrQLenPdf::2                       0                       # What write queue length does an incoming req see (Count)
system.mem_ctrls.wrQLenPdf::3                       0                       # What write queue length does an incoming req see (Count)
system.mem_ctrls.wrQLenPdf::4                       0                       # What write queue length does an incoming req see (Count)
system.mem_ctrls.wrQLenPdf::5                       0                       # What write queue length does an incoming req see (Count)
system.mem_ctrls.wrQLenPdf::6                       0                       # What write queue length does an incoming req see (Count)
system.mem_ctrls.wrQLenPdf::7                       0                       # What write queue length does an incoming req see (Count)
system.mem_ctrls.wrQLenPdf::8                       0                       # What write queue length does an incoming req see (Count)
system.mem_ctrls.wrQLenPdf::9                       0                       # What write queue length does an incoming req see (Count)
system.mem_ctrls.wrQLenPdf::10                      0                       # What write queue length does an incoming req see (Count)
system.mem_ctrls.wrQLenPdf::11                      0                       # What write queue length does an incoming req see (Count)
system.mem_ctrls.wrQLenPdf::12                      0                       # What write queue length does an incoming req see (Count)
system.mem_ctrls.wrQLenPdf::13                      0                       # What write queue length does an incoming req see (Count)
system.mem_ctrls.wrQLenPdf::14                      0                       # What write queue length does an incoming req see (Count)
system.mem_ctrls.wrQLenPdf::15                 106758                       # What write queue length does an incoming req see (Count)
system.mem_ctrls.wrQLenPdf::16                 106988                       # What write queue length does an incoming req see (Count)
system.mem_ctrls.wrQLenPdf::17                 108518                       # What write queue length does an incoming req see (Count)
system.mem_ctrls.wrQLenPdf::18                 108587                       # What write queue length does an incoming req see (Count)
system.mem_ctrls.wrQLenPdf::19                 108828                       # What write queue length does an incoming req see (Count)
system.mem_ctrls.wrQLenPdf::20                 108849                       # What write queue length does an incoming req see (Count)
system.mem_ctrls.wrQLenPdf::21                 108981                       # What write queue length does an incoming req see (Count)
system.mem_ctrls.wrQLenPdf::22                 109072                       # What write queue length does an incoming req see (Count)
system.mem_ctrls.wrQLenPdf::23                 109156                       # What write queue length does an incoming req see (Count)
system.mem_ctrls.wrQLenPdf::24                 109526                       # What write queue length does an incoming req see (Count)
system.mem_ctrls.wrQLenPdf::25                 109619                       # What write queue length does an incoming req see (Count)
system.mem_ctrls.wrQLenPdf::26                 113247                       # What write queue length does an incoming req see (Count)
system.mem_ctrls.wrQLenPdf::27                 113577                       # What write queue length does an incoming req see (Count)
system.mem_ctrls.wrQLenPdf::28                 188670                       # What write queue length does an incoming req see (Count)
system.mem_ctrls.wrQLenPdf::29                 193865                       # What write queue length does an incoming req see (Count)
system.mem_ctrls.wrQLenPdf::30                 127704                       # What write queue length does an incoming req see (Count)
system.mem_ctrls.wrQLenPdf::31                 123814                       # What write queue length does an incoming req see (Count)
system.mem_ctrls.wrQLenPdf::32                 111021                       # What write queue length does an incoming req see (Count)
system.mem_ctrls.wrQLenPdf::33                   1438                       # What write queue length does an incoming req see (Count)
system.mem_ctrls.wrQLenPdf::34                    959                       # What write queue length does an incoming req see (Count)
system.mem_ctrls.wrQLenPdf::35                    729                       # What write queue length does an incoming req see (Count)
system.mem_ctrls.wrQLenPdf::36                    693                       # What write queue length does an incoming req see (Count)
system.mem_ctrls.wrQLenPdf::37                    507                       # What write queue length does an incoming req see (Count)
system.mem_ctrls.wrQLenPdf::38                    483                       # What write queue length does an incoming req see (Count)
system.mem_ctrls.wrQLenPdf::39                    367                       # What write queue length does an incoming req see (Count)
system.mem_ctrls.wrQLenPdf::40                    359                       # What write queue length does an incoming req see (Count)
system.mem_ctrls.wrQLenPdf::41                      1                       # What write queue length does an incoming req see (Count)
system.mem_ctrls.wrQLenPdf::42                      0                       # What write queue length does an incoming req see (Count)
system.mem_ctrls.wrQLenPdf::43                      0                       # What write queue length does an incoming req see (Count)
system.mem_ctrls.wrQLenPdf::44                      0                       # What write queue length does an incoming req see (Count)
system.mem_ctrls.wrQLenPdf::45                      0                       # What write queue length does an incoming req see (Count)
system.mem_ctrls.wrQLenPdf::46                      0                       # What write queue length does an incoming req see (Count)
system.mem_ctrls.wrQLenPdf::47                      0                       # What write queue length does an incoming req see (Count)
system.mem_ctrls.wrQLenPdf::48                      0                       # What write queue length does an incoming req see (Count)
system.mem_ctrls.wrQLenPdf::49                      0                       # What write queue length does an incoming req see (Count)
system.mem_ctrls.wrQLenPdf::50                      0                       # What write queue length does an incoming req see (Count)
system.mem_ctrls.wrQLenPdf::51                      0                       # What write queue length does an incoming req see (Count)
system.mem_ctrls.wrQLenPdf::52                      0                       # What write queue length does an incoming req see (Count)
system.mem_ctrls.wrQLenPdf::53                      0                       # What write queue length does an incoming req see (Count)
system.mem_ctrls.wrQLenPdf::54                      0                       # What write queue length does an incoming req see (Count)
system.mem_ctrls.wrQLenPdf::55                      0                       # What write queue length does an incoming req see (Count)
system.mem_ctrls.wrQLenPdf::56                      0                       # What write queue length does an incoming req see (Count)
system.mem_ctrls.wrQLenPdf::57                      0                       # What write queue length does an incoming req see (Count)
system.mem_ctrls.wrQLenPdf::58                      0                       # What write queue length does an incoming req see (Count)
system.mem_ctrls.wrQLenPdf::59                      0                       # What write queue length does an incoming req see (Count)
system.mem_ctrls.wrQLenPdf::60                      0                       # What write queue length does an incoming req see (Count)
system.mem_ctrls.wrQLenPdf::61                      0                       # What write queue length does an incoming req see (Count)
system.mem_ctrls.wrQLenPdf::62                      0                       # What write queue length does an incoming req see (Count)
system.mem_ctrls.wrQLenPdf::63                      0                       # What write queue length does an incoming req see (Count)
system.mem_ctrls.rdPerTurnAround::samples       109163                       # Reads before turning the bus around for writes (Count)
system.mem_ctrls.rdPerTurnAround::mean      21.665729                       # Reads before turning the bus around for writes (Count)
system.mem_ctrls.rdPerTurnAround::gmean     20.872485                       # Reads before turning the bus around for writes (Count)
system.mem_ctrls.rdPerTurnAround::stdev      8.613391                       # Reads before turning the bus around for writes (Count)
system.mem_ctrls.rdPerTurnAround::0-7               3      0.00%      0.00% # Reads before turning the bus around for writes (Count)
system.mem_ctrls.rdPerTurnAround::8-15            388      0.36%      0.36% # Reads before turning the bus around for writes (Count)
system.mem_ctrls.rdPerTurnAround::16-23         76710     70.27%     70.63% # Reads before turning the bus around for writes (Count)
system.mem_ctrls.rdPerTurnAround::24-31         27231     24.95%     95.57% # Reads before turning the bus around for writes (Count)
system.mem_ctrls.rdPerTurnAround::32-39          2866      2.63%     98.20% # Reads before turning the bus around for writes (Count)
system.mem_ctrls.rdPerTurnAround::40-47           437      0.40%     98.60% # Reads before turning the bus around for writes (Count)
system.mem_ctrls.rdPerTurnAround::48-55           630      0.58%     99.18% # Reads before turning the bus around for writes (Count)
system.mem_ctrls.rdPerTurnAround::56-63           138      0.13%     99.30% # Reads before turning the bus around for writes (Count)
system.mem_ctrls.rdPerTurnAround::64-71           194      0.18%     99.48% # Reads before turning the bus around for writes (Count)
system.mem_ctrls.rdPerTurnAround::72-79            55      0.05%     99.53% # Reads before turning the bus around for writes (Count)
system.mem_ctrls.rdPerTurnAround::80-87           105      0.10%     99.63% # Reads before turning the bus around for writes (Count)
system.mem_ctrls.rdPerTurnAround::88-95            42      0.04%     99.67% # Reads before turning the bus around for writes (Count)
system.mem_ctrls.rdPerTurnAround::96-103           87      0.08%     99.75% # Reads before turning the bus around for writes (Count)
system.mem_ctrls.rdPerTurnAround::104-111           32      0.03%     99.78% # Reads before turning the bus around for writes (Count)
system.mem_ctrls.rdPerTurnAround::112-119           66      0.06%     99.84% # Reads before turning the bus around for writes (Count)
system.mem_ctrls.rdPerTurnAround::120-127           34      0.03%     99.87% # Reads before turning the bus around for writes (Count)
system.mem_ctrls.rdPerTurnAround::128-135           50      0.05%     99.91% # Reads before turning the bus around for writes (Count)
system.mem_ctrls.rdPerTurnAround::136-143           17      0.02%     99.93% # Reads before turning the bus around for writes (Count)
system.mem_ctrls.rdPerTurnAround::144-151           27      0.02%     99.95% # Reads before turning the bus around for writes (Count)
system.mem_ctrls.rdPerTurnAround::152-159            5      0.00%     99.96% # Reads before turning the bus around for writes (Count)
system.mem_ctrls.rdPerTurnAround::160-167           19      0.02%     99.98% # Reads before turning the bus around for writes (Count)
system.mem_ctrls.rdPerTurnAround::168-175            5      0.00%     99.98% # Reads before turning the bus around for writes (Count)
system.mem_ctrls.rdPerTurnAround::176-183            8      0.01%     99.99% # Reads before turning the bus around for writes (Count)
system.mem_ctrls.rdPerTurnAround::184-191            2      0.00%     99.99% # Reads before turning the bus around for writes (Count)
system.mem_ctrls.rdPerTurnAround::192-199            1      0.00%     99.99% # Reads before turning the bus around for writes (Count)
system.mem_ctrls.rdPerTurnAround::200-207            3      0.00%     99.99% # Reads before turning the bus around for writes (Count)
system.mem_ctrls.rdPerTurnAround::208-215            1      0.00%     99.99% # Reads before turning the bus around for writes (Count)
system.mem_ctrls.rdPerTurnAround::216-223            1      0.00%     99.99% # Reads before turning the bus around for writes (Count)
system.mem_ctrls.rdPerTurnAround::224-231            2      0.00%    100.00% # Reads before turning the bus around for writes (Count)
system.mem_ctrls.rdPerTurnAround::232-239            2      0.00%    100.00% # Reads before turning the bus around for writes (Count)
system.mem_ctrls.rdPerTurnAround::240-247            2      0.00%    100.00% # Reads before turning the bus around for writes (Count)
system.mem_ctrls.rdPerTurnAround::total        109163                       # Reads before turning the bus around for writes (Count)
system.mem_ctrls.wrPerTurnAround::samples       109163                       # Writes before turning the bus around for reads (Count)
system.mem_ctrls.wrPerTurnAround::mean      19.899755                       # Writes before turning the bus around for reads (Count)
system.mem_ctrls.wrPerTurnAround::gmean     19.676271                       # Writes before turning the bus around for reads (Count)
system.mem_ctrls.wrPerTurnAround::stdev      3.142885                       # Writes before turning the bus around for reads (Count)
system.mem_ctrls.wrPerTurnAround::16             1809      1.66%      1.66% # Writes before turning the bus around for reads (Count)
system.mem_ctrls.wrPerTurnAround::17              231      0.21%      1.87% # Writes before turning the bus around for reads (Count)
system.mem_ctrls.wrPerTurnAround::18            72202     66.14%     68.01% # Writes before turning the bus around for reads (Count)
system.mem_ctrls.wrPerTurnAround::19              228      0.21%     68.22% # Writes before turning the bus around for reads (Count)
system.mem_ctrls.wrPerTurnAround::20             5544      5.08%     73.30% # Writes before turning the bus around for reads (Count)
[...]
system.mem_ctrls.dram.bwWrite::total         22454264                       # Write bandwidth from this memory ((Byte/Second))
system.mem_ctrls.dram.bwTotal::writebacks     22454264                       # Total bandwidth to/from this memory ((Byte/Second))
system.mem_ctrls.dram.bwTotal::cpu.inst          1075                       # Total bandwidth to/from this memory ((Byte/Second))
system.mem_ctrls.dram.bwTotal::cpu.data      12226620                       # Total bandwidth to/from this memory ((Byte/Second))
system.mem_ctrls.dram.bwTotal::l2.prefetcher     12219240                       # Total bandwidth to/from this memory ((Byte/Second))
system.mem_ctrls.dram.bwTotal::total         46901199                       # Total bandwidth to/from this memory ((Byte/Second))
system.mem_ctrls.dram.readBursts              2365286                       # Number of DRAM read bursts (Count)
system.mem_ctrls.dram.writeBursts             2172589                       # Number of DRAM write bursts (Count)
system.mem_ctrls.dram.perBankRdBursts::0       295599                       # Per bank write bursts (Count)
system.mem_ctrls.dram.perBankRdBursts::1       295594                       # Per bank write bursts (Count)
system.mem_ctrls.dram.perBankRdBursts::2       295566                       # Per bank write bursts (Count)
system.mem_ctrls.dram.perBankRdBursts::3       295516                       # Per bank write bursts (Count)
system.mem_ctrls.dram.perBankRdBursts::4       295401                       # Per bank write bursts (Count)
system.mem_ctrls.dram.perBankRdBursts::5       295875                       # Per bank write bursts (Count)
system.mem_ctrls.dram.perBankRdBursts::6       296042                       # Per bank write bursts (Count)
system.mem_ctrls.dram.perBankRdBursts::7       295693                       # Per bank write bursts (Count)
system.mem_ctrls.dram.perBankWrBursts::0       271540                       # Per bank write bursts (Count)
system.mem_ctrls.dram.perBankWrBursts::1       271641                       # Per bank write bursts (Count)
system.mem_ctrls.dram.perBankWrBursts::2       271780                       # Per bank write bursts (Count)
system.mem_ctrls.dram.perBankWrBursts::3       271694                       # Per bank write bursts (Count)
system.mem_ctrls.dram.perBankWrBursts::4       271132                       # Per bank write bursts (Count)
system.mem_ctrls.dram.perBankWrBursts::5       271944                       # Per bank write bursts (Count)
system.mem_ctrls.dram.perBankWrBursts::6       271490                       # Per bank write bursts (Count)
system.mem_ctrls.dram.perBankWrBursts::7       271368                       # Per bank write bursts (Count)
system.mem_ctrls.dram.totQLat             77695563120                       # Total ticks spent queuing (Tick)
system.mem_ctrls.dram.totBusLat           17739645000                       # Total ticks spent in databus transfers (Tick)
system.mem_ctrls.dram.totMemAccLat       130914498120                       # Total ticks spent from burst creation until serviced by the DRAM (Tick)
system.mem_ctrls.dram.avgQLat                32848.27                       # Average queueing delay per DRAM burst ((Tick/Count))
system.mem_ctrls.dram.avgBusLat               7500.00                       # Average bus latency per DRAM burst ((Tick/Count))
system.mem_ctrls.dram.avgMemAccLat           55348.27                       # Average memory access latency per DRAM burst ((Tick/Count))
system.mem_ctrls.dram.readRowHits             2037844                       # Number of row buffer hits during reads (Count)
system.mem_ctrls.dram.writeRowHits            1926639                       # Number of row buffer hits during writes (Count)
system.mem_ctrls.dram.readRowHitRate            86.16                       # Row buffer hit rate for reads (Ratio)
system.mem_ctrls.dram.writeRowHitRate           88.68                       # Row buffer hit rate for writes (Ratio)
system.mem_ctrls.dram.bytesPerActivate::samples       573393                       # Bytes accessed per row activation (Byte)
system.mem_ctrls.dram.bytesPerActivate::mean   253.250388                       # Bytes accessed per row activation (Byte)
system.mem_ctrls.dram.bytesPerActivate::gmean   184.285383                       # Bytes accessed per row activation (Byte)
system.mem_ctrls.dram.bytesPerActivate::stdev   171.321624                       # Bytes accessed per row activation (Byte)
system.mem_ctrls.dram.bytesPerActivate::0-63        23597      4.12%      4.12% # Bytes accessed per row activation (Byte)
system.mem_ctrls.dram.bytesPerActivate::64-127       160560     28.00%     32.12% # Bytes accessed per row activation (Byte)
system.mem_ctrls.dram.bytesPerActivate::128-191        70204     12.24%     44.36% # Bytes accessed per row activation (Byte)
system.mem_ctrls.dram.bytesPerActivate::192-255        34753      6.06%     50.42% # Bytes accessed per row activation (Byte)
system.mem_ctrls.dram.bytesPerActivate::256-319        17482      3.05%     53.47% # Bytes accessed per row activation (Byte)
system.mem_ctrls.dram.bytesPerActivate::320-383        76651     13.37%     66.84% # Bytes accessed per row activation (Byte)
system.mem_ctrls.dram.bytesPerActivate::384-447        60639     10.58%     77.41% # Bytes accessed per row activation (Byte)
system.mem_ctrls.dram.bytesPerActivate::448-511        53157      9.27%     86.68% # Bytes accessed per row activation (Byte)
system.mem_ctrls.dram.bytesPerActivate::512-575        76350     13.32%    100.00% # Bytes accessed per row activation (Byte)
system.mem_ctrls.dram.bytesPerActivate::total       573393                       # Bytes accessed per row activation (Byte)
system.mem_ctrls.dram.bytesRead              75689152                       # Total bytes read (Byte)
system.mem_ctrls.dram.bytesWritten           69522848                       # Total bytes written (Byte)
system.mem_ctrls.dram.avgRdBW               24.445736                       # Average DRAM read bandwidth in MiBytes/s ((Byte/Second))
system.mem_ctrls.dram.avgWrBW               22.454171                       # Average DRAM write bandwidth in MiBytes/s ((Byte/Second))
system.mem_ctrls.dram.peakBW                  4266.00                       # Theoretical peak bandwidth in MiByte/s ((Byte/Second))
system.mem_ctrls.dram.busUtil                    1.10                       # Data bus utilization in percentage (Ratio)
system.mem_ctrls.dram.busUtilRead                0.57                       # Data bus utilization in percentage for reads (Ratio)
system.mem_ctrls.dram.busUtilWrite               0.53                       # Data bus utilization in percentage for writes (Ratio)
system.mem_ctrls.dram.pageHitRate               87.36                       # Row buffer hit rate, read and write combined (Ratio)
system.mem_ctrls.dram.power_state.pwrStateResidencyTicks::UNDEFINED 6192804020500                       # Cumulative time (in ticks) in various power states (Tick)
system.mem_ctrls.dram.rank0.actEnergy    1744363591.028176                       # Energy for activate commands per rank (pJ) (Joule)
system.mem_ctrls.dram.rank0.preEnergy    614477502.643668                       # Energy for precharge commands per rank (pJ) (Joule)
system.mem_ctrls.dram.rank0.readEnergy   4062845973.646709                       # Energy for read commands per rank (pJ) (Joule)
system.mem_ctrls.dram.rank0.writeEnergy  3350436703.322128                       # Energy for write commands per rank (pJ) (Joule)
system.mem_ctrls.dram.rank0.refreshEnergy 22135077138.064434                       # Energy for refresh commands per rank (pJ) (Joule)
system.mem_ctrls.dram.rank0.actBackEnergy 25067546144.620289                       # Energy for active background per rank (pJ) (Joule)
system.mem_ctrls.dram.rank0.preBackEnergy 98099589596.339920                       # Energy for precharge background per rank (pJ) (Joule)
system.mem_ctrls.dram.rank0.actPowerDownEnergy            0                       # Energy for active power-down per rank (pJ) (Joule)
system.mem_ctrls.dram.rank0.prePowerDownEnergy            0                       # Energy for precharge power-down per rank (pJ) (Joule)
system.mem_ctrls.dram.rank0.selfRefreshEnergy            0                       # Energy for self refresh per rank (pJ) (Joule)
system.mem_ctrls.dram.rank0.totalEnergy  155074336651.835876                       # Total energy per rank (pJ) (Joule)
system.mem_ctrls.dram.rank0.averagePower    50.085199                       # Core power per rank (mW) (Watt)
system.mem_ctrls.dram.rank0.totalIdleTime            0                       # Total Idle time Per DRAM Rank (Tick)
system.mem_ctrls.dram.rank0.pwrStateTime::IDLE 2463067850506                       # Time in different power states (Tick)
system.mem_ctrls.dram.rank0.pwrStateTime::REF 103605580000                       # Time in different power states (Tick)
system.mem_ctrls.dram.rank0.pwrStateTime::SREF            0                       # Time in different power states (Tick)
system.mem_ctrls.dram.rank0.pwrStateTime::PRE_PDN            0                       # Time in different power states (Tick)
system.mem_ctrls.dram.rank0.pwrStateTime::ACT 529540689994                       # Time in different power states (Tick)
system.mem_ctrls.dram.rank0.pwrStateTime::ACT_PDN            0                       # Time in different power states (Tick)
system.mem_ctrls.power_state.pwrStateResidencyTicks::UNDEFINED 6192804020500                       # Cumulative time (in ticks) in various power states (Tick)
system.membus.transDist::ReadResp             1088726                       # Transaction distribution (Count)
system.membus.transDist::WritebackDirty       1086299                       # Transaction distribution (Count)
system.membus.transDist::CleanEvict             96351                       # Transaction distribution (Count)
system.membus.transDist::ReadExReq              93975                       # Transaction distribution (Count)
system.membus.transDist::ReadExResp             93975                       # Transaction distribution (Count)
system.membus.transDist::ReadSharedReq        1088726                       # Transaction distribution (Count)
system.membus.pktCount_system.l2.mem_side_port::system.mem_ctrls.port      3548052                       # Packet count per connected requestor and responder (Count)
system.membus.pktCount_system.l2.mem_side_port::total      3548052                       # Packet count per connected requestor and responder (Count)
system.membus.pktCount::total                 3548052                       # Packet count per connected requestor and responder (Count)
system.membus.pktSize_system.l2.mem_side_port::system.mem_ctrls.port    145216000                       # Cumulative packet size per connected requestor and responder (Byte)
system.membus.pktSize_system.l2.mem_side_port::total    145216000                       # Cumulative packet size per connected requestor and responder (Byte)
system.membus.pktSize::total                145216000                       # Cumulative packet size per connected requestor and responder (Byte)
system.membus.snoops                                0                       # Total snoops (Count)
system.membus.snoopTraffic                          0                       # Total snoop traffic (Byte)
system.membus.snoopFanout::samples            1182701                       # Request fanout histogram (Count)
system.membus.snoopFanout::mean                     0                       # Request fanout histogram (Count)
system.membus.snoopFanout::stdev                    0                       # Request fanout histogram (Count)
system.membus.snoopFanout::underflows               0      0.00%      0.00% # Request fanout histogram (Count)
system.membus.snoopFanout::0                  1182701    100.00%    100.00% # Request fanout histogram (Count)
system.membus.snoopFanout::1                        0      0.00%    100.00% # Request fanout histogram (Count)
system.membus.snoopFanout::overflows                0      0.00%    100.00% # Request fanout histogram (Count)
system.membus.snoopFanout::min_value                0                       # Request fanout histogram (Count)
system.membus.snoopFanout::max_value                0                       # Request fanout histogram (Count)
system.membus.snoopFanout::total              1182701                       # Request fanout histogram (Count)
system.membus.power_state.pwrStateResidencyTicks::UNDEFINED 6192804020500                       # Cumulative time (in ticks) in various power states (Tick)
system.membus.reqLayer2.occupancy          6710573976                       # Layer occupancy (ticks) (Tick)
system.membus.reqLayer2.utilization               0.0                       # Layer utilization (Ratio)
system.membus.respLayer1.occupancy         5916278690                       # Layer occupancy (ticks) (Tick)
system.membus.respLayer1.utilization              0.0                       # Layer utilization (Ratio)
system.membus.snoop_filter.totRequests        2365351                       # Total number of requests made to the snoop filter. (Count)
system.membus.snoop_filter.hitSingleRequests      1182651                       # Number of requests hitting in the snoop filter with a single holder of the requested data. (Count)
system.membus.snoop_filter.hitMultiRequests            0                       # Number of requests hitting in the snoop filter with multiple (>1) holders of the requested data. (Count)
system.membus.snoop_filter.totSnoops                0                       # Total number of snoops made to the snoop filter. (Count)
system.membus.snoop_filter.hitSingleSnoops            0                       # Number of snoops hitting in the snoop filter with a single holder of the requested data. (Count)
system.membus.snoop_filter.hitMultiSnoops            0                       # Number of snoops hitting in the snoop filter with multiple (>1) holders of the requested data. (Count)
system.tol2bus.transDist::ReadResp            2589780                       # Transaction distribution (Count)
system.tol2bus.transDist::WritebackDirty      3730210                       # Transaction distribution (Count)
system.tol2bus.transDist::WritebackClean           49                       # Transaction distribution (Count)
system.tol2bus.transDist::CleanEvict           236348                       # Transaction distribution (Count)
system.tol2bus.transDist::HardPFReq           1034457                       # Transaction distribution (Count)
system.tol2bus.transDist::ReadExReq            194064                       # Transaction distribution (Count)
system.tol2bus.transDist::ReadExResp           194064                       # Transaction distribution (Count)
system.tol2bus.transDist::ReadCleanReq             52                       # Transaction distribution (Count)
system.tol2bus.transDist::ReadSharedReq       2589728                       # Transaction distribution (Count)
system.tol2bus.pktCount_system.cpu.icache.mem_side_port::system.l2.cpu_side_port          153                       # Packet count per connected requestor and responder (Count)
system.tol2bus.pktCount_system.cpu.dcache.mem_side_port::system.l2.cpu_side_port      8351376                       # Packet count per connected requestor and responder (Count)
system.tol2bus.pktCount::total                8351529                       # Packet count per connected requestor and responder (Count)
system.tol2bus.pktSize_system.cpu.icache.mem_side_port::system.l2.cpu_side_port         6464                       # Cumulative packet size per connected requestor and responder (Byte)
system.tol2bus.pktSize_system.cpu.dcache.mem_side_port::system.l2.cpu_side_port    347372992                       # Cumulative packet size per connected requestor and responder (Byte)
system.tol2bus.pktSize::total               347379456                       # Cumulative packet size per connected requestor and responder (Byte)
system.tol2bus.snoops                         2217223                       # Total snoops (Count)
system.tol2bus.snoopTraffic                  69523136                       # Total snoop traffic (Byte)
system.tol2bus.snoopFanout::samples           5001067                       # Request fanout histogram (Count)
system.tol2bus.snoopFanout::mean             0.000023                       # Request fanout histogram (Count)
system.tol2bus.snoopFanout::stdev            0.004837                       # Request fanout histogram (Count)
system.tol2bus.snoopFanout::underflows              0      0.00%      0.00% # Request fanout histogram (Count)
system.tol2bus.snoopFanout::0                 5000950    100.00%    100.00% # Request fanout histogram (Count)
system.tol2bus.snoopFanout::1                     117      0.00%    100.00% # Request fanout histogram (Count)
system.tol2bus.snoopFanout::2                       0      0.00%    100.00% # Request fanout histogram (Count)
system.tol2bus.snoopFanout::3                       0      0.00%    100.00% # Request fanout histogram (Count)
system.tol2bus.snoopFanout::4                       0      0.00%    100.00% # Request fanout histogram (Count)
system.tol2bus.snoopFanout::overflows               0      0.00%    100.00% # Request fanout histogram (Count)
system.tol2bus.snoopFanout::min_value               0                       # Request fanout histogram (Count)
system.tol2bus.snoopFanout::max_value               1                       # Request fanout histogram (Count)
system.tol2bus.snoopFanout::total             5001067                       # Request fanout histogram (Count)
system.tol2bus.power_state.pwrStateResidencyTicks::UNDEFINED 6192804020500                       # Cumulative time (in ticks) in various power states (Tick)
system.tol2bus.reqLayer0.occupancy         5427802500                       # Layer occupancy (ticks) (Tick)
system.tol2bus.reqLayer0.utilization              0.0                       # Layer utilization (Ratio)
system.tol2bus.respLayer0.occupancy             78000                       # Layer occupancy (ticks) (Tick)
system.tol2bus.respLayer0.utilization             0.0                       # Layer utilization (Ratio)
system.tol2bus.respLayer1.occupancy        4175688000                       # Layer occupancy (ticks) (Tick)
system.tol2bus.respLayer1.utilization             0.0                       # Layer utilization (Ratio)
system.tol2bus.snoop_filter.totRequests       5567685                       # Total number of requests made to the snoop filter. (Count)
system.tol2bus.snoop_filter.hitSingleRequests      2783841                       # Number of requests hitting in the snoop filter with a single holder of the requested data. (Count)
system.tol2bus.snoop_filter.hitMultiRequests            1                       # Number of requests hitting in the snoop filter with multiple (>1) holders of the requested data. (Count)
system.tol2bus.snoop_filter.totSnoops             116                       # Total number of snoops made to the snoop filter. (Count)
system.tol2bus.snoop_filter.hitSingleSnoops          116                       # Number of snoops hitting in the snoop filter with a single holder of the requested data. (Count)
system.tol2bus.snoop_filter.hitMultiSnoops            0                       # Number of snoops hitting in the snoop filter with multiple (>1) holders of the requested data. (Count)
system.voltage_domain.voltage                       1                       # Voltage in Volts (Volt)
system.workload.inst.arm                            0                       # number of arm instructions executed (Count)
system.workload.inst.quiesce                        0                       # number of quiesce instructions executed (Count)

---------- End Simulation Statistics   ----------
