
---------- Begin Simulation Statistics ----------
simSeconds                                   0.013117                       # Number of seconds simulated (Second)
simTicks                                  13116757000                       # Number of ticks simulated (Tick)
finalTick                                 14173255500                       # Number of ticks from beginning of simulation (restored from checkpoints and never reset) (Tick)
simFreq                                  1000000000000                       # The number of ticks per simulated second ((Tick/Second))
hostSeconds                                    119.71                       # Real time elapsed on the host (Second)
hostTickRate                                109571858                       # The number of ticks simulated per host second (ticks/s) ((Tick/Second))
hostMemory                                     800384                       # Number of bytes of host memory used (Byte)
simInsts                                     27246366                       # Number of instructions simulated (Count)
simOps                                       41958143                       # Number of ops (including micro ops) simulated (Count)
hostInstRate                                   227604                       # Simulator instruction rate (inst/s) ((Count/Second))
hostOpRate                                     350500                       # Simulator op (including micro ops) rate (op/s) ((Count/Second))
system.clk_domain.clock                           500                       # Clock period in ticks (Tick)
system.clk_domain.voltage_domain.voltage            1                       # Voltage in Volts (Volt)
system.cpu.numCycles                         26233514                       # Number of cpu cycles simulated (Cycle)
system.cpu.numWorkItemsStarted                      0                       # Number of work items this cpu started (Count)
system.cpu.numWorkItemsCompleted                    0                       # Number of work items this cpu completed (Count)
system.cpu.instsAdded                        50106052                       # Number of instructions added to the IQ (excludes non-spec) (Count)
system.cpu.nonSpecInstsAdded                        1                       # Number of non-speculative instructions added to the IQ (Count)
system.cpu.instsIssued                       47734177                       # Number of instructions issued (Count)
system.cpu.squashedInstsIssued                    228                       # Number of squashed instructions issued (Count)
system.cpu.squashedInstsExamined             10910173                       # Number of squashed instructions iterated over during squash; mainly for profiling (Count)
system.cpu.squashedOperandsExamined          14633902                       # Number of squashed operands that are examined and possibly removed from graph (Count)
system.cpu.numIssuedDist::samples            26164380                       # Number of insts issued each cycle (Count)
system.cpu.numIssuedDist::mean               1.824395                       # Number of insts issued each cycle (Count)
system.cpu.numIssuedDist::stdev              1.453648                       # Number of insts issued each cycle (Count)
system.cpu.numIssuedDist::underflows                0      0.00%      0.00% # Number of insts issued each cycle (Count)
system.cpu.numIssuedDist::0                   6210447     23.74%     23.74% # Number of insts issued each cycle (Count)
system.cpu.numIssuedDist::1                   5283123     20.19%     43.93% # Number of insts issued each cycle (Count)
system.cpu.numIssuedDist::2                   6471291     24.73%     68.66% # Number of insts issued each cycle (Count)
system.cpu.numIssuedDist::3                   4613081     17.63%     86.29% # Number of insts issued each cycle (Count)
system.cpu.numIssuedDist::4                   2459690      9.40%     95.69% # Number of insts issued each cycle (Count)
system.cpu.numIssuedDist::5                    930019      3.55%     99.25% # Number of insts issued each cycle (Count)
system.cpu.numIssuedDist::6                    196729      0.75%    100.00% # Number of insts issued each cycle (Count)
system.cpu.numIssuedDist::overflows                 0      0.00%    100.00% # Number of insts issued each cycle (Count)
system.cpu.numIssuedDist::min_value                 0                       # Number of insts issued each cycle (Count)
system.cpu.numIssuedDist::max_value                 6                       # Number of insts issued each cycle (Count)
system.cpu.numIssuedDist::total              26164380                       # Number of insts issued each cycle (Count)
system.cpu.statFuBusy::No_OpClass                   0      0.00%      0.00% # attempts to use FU when none available (Count)
system.cpu.statFuBusy::IntAlu                       0      0.00%      0.00% # attempts to use FU when none available (Count)
system.cpu.statFuBusy::IntMult                      0      0.00%      0.00% # attempts to use FU when none available (Count)
system.cpu.statFuBusy::IntDiv                       0      0.00%      0.00% # attempts to use FU when none available (Count)
system.cpu.statFuBusy::FloatAdd                     0      0.00%      0.00% # attempts to use FU when none available (Count)
system.cpu.statFuBusy::FloatCmp                     0      0.00%      0.00% # attempts to use FU when none available (Count)
system.cpu.statFuBusy::FloatCvt                     0      0.00%      0.00% # attempts to use FU when none available (Count)
system.cpu.statFuBusy::FloatMult                    0      0.00%      0.00% # attempts to use FU when none available (Count)
system.cpu.statFuBusy::FloatMultAcc                 0      0.00%      0.00% # attempts to use FU when none available (Count)
system.cpu.statFuBusy::FloatDiv                     0      0.00%      0.00% # attempts to use FU when none available (Count)
system.cpu.statFuBusy::FloatMisc                    0      0.00%      0.00% # attempts to use FU when none available (Count)
system.cpu.statFuBusy::FloatSqrt                    0      0.00%      0.00% # attempts to use FU when none available (Count)
system.cpu.statFuBusy::SimdAdd                      0      0.00%      0.00% # attempts to use FU when none available (Count)
system.cpu.statFuBusy::SimdAddAcc                   0      0.00%      0.00% # attempts to use FU when none available (Count)
system.cpu.statFuBusy::SimdAlu                      0      0.00%      0.00% # attempts to use FU when none available (Count)
system.cpu.statFuBusy::SimdCmp                      0      0.00%      0.00% # attempts to use FU when none available (Count)
system.cpu.statFuBusy::SimdCvt                      0      0.00%      0.00% # attempts to use FU when none available (Count)
system.cpu.statFuBusy::SimdMisc                    60      0.26%      0.26% # attempts to use FU when none available (Count)
system.cpu.statFuBusy::SimdMult                     0      0.00%      0.26% # attempts to use FU when none available (Count)
system.cpu.statFuBusy::SimdMultAcc                  0      0.00%      0.26% # attempts to use FU when none available (Count)
system.cpu.statFuBusy::SimdShift                    0      0.00%      0.26% # attempts to use FU when none available (Count)
system.cpu.statFuBusy::SimdShiftAcc                 0      0.00%      0.26% # attempts to use FU when none available (Count)
system.cpu.statFuBusy::SimdDiv                      0      0.00%      0.26% # attempts to use FU when none available (Count)
system.cpu.statFuBusy::SimdSqrt                     0      0.00%      0.26% # attempts to use FU when none available (Count)
system.cpu.statFuBusy::SimdFloatAdd                 0      0.00%      0.26% # attempts to use FU when none available (Count)
system.cpu.statFuBusy::SimdFloatAlu                 0      0.00%      0.26% # attempts to use FU when none available (Count)
system.cpu.statFuBusy::SimdFloatCmp                 0      0.00%      0.26% # attempts to use FU when none available (Count)
system.cpu.statFuBusy::SimdFloatCvt                 0      0.00%      0.26% # attempts to use FU when none available (Count)
system.cpu.statFuBusy::SimdFloatDiv                 0      0.00%      0.26% # attempts to use FU when none available (Count)
system.cpu.statFuBusy::SimdFloatMisc                0      0.00%      0.26% # attempts to use FU when none available (Count)
system.cpu.statFuBusy::SimdFloatMult                0      0.00%      0.26% # attempts to use FU when none available (Count)
system.cpu.statFuBusy::SimdFloatMultAcc             0      0.00%      0.26% # attempts to use FU when none available (Count)
system.cpu.statFuBusy::SimdFloatSqrt                0      0.00%      0.26% # attempts to use FU when none available (Count)
system.cpu.statFuBusy::SimdReduceAdd                0      0.00%      0.26% # attempts to use FU when none available (Count)
system.cpu.statFuBusy::SimdReduceAlu                0      0.00%      0.26% # attempts to use FU when none available (Count)
system.cpu.statFuBusy::SimdReduceCmp                0      0.00%      0.26% # attempts to use FU when none available (Count)
system.cpu.statFuBusy::SimdFloatReduceAdd            0      0.00%      0.26% # attempts to use FU when none available (Count)
system.cpu.statFuBusy::SimdFloatReduceCmp            0      0.00%      0.26% # attempts to use FU when none available (Count)
system.cpu.statFuBusy::SimdAes                      0      0.00%      0.26% # attempts to use FU when none available (Count)
system.cpu.statFuBusy::SimdAesMix                   0      0.00%      0.26% # attempts to use FU when none available (Count)
system.cpu.statFuBusy::SimdSha1Hash                 0      0.00%      0.26% # attempts to use FU when none available (Count)
system.cpu.statFuBusy::SimdSha1Hash2                0      0.00%      0.26% # attempts to use FU when none available (Count)
system.cpu.statFuBusy::SimdSha256Hash               0      0.00%      0.26% # attempts to use FU when none available (Count)
system.cpu.statFuBusy::SimdSha256Hash2              0      0.00%      0.26% # attempts to use FU when none available (Count)
system.cpu.statFuBusy::SimdShaSigma2                0      0.00%      0.26% # attempts to use FU when none available (Count)
system.cpu.statFuBusy::SimdShaSigma3                0      0.00%      0.26% # attempts to use FU when none available (Count)
system.cpu.statFuBusy::SimdPredAlu                  0      0.00%      0.26% # attempts to use FU when none available (Count)
system.cpu.statFuBusy::MemRead                  16149     69.50%     69.76% # attempts to use FU when none available (Count)
system.cpu.statFuBusy::MemWrite                  7024     30.23%     99.99% # attempts to use FU when none available (Count)
system.cpu.statFuBusy::FloatMemRead                 0      0.00%     99.99% # attempts to use FU when none available (Count)
system.cpu.statFuBusy::FloatMemWrite                2      0.01%    100.00% # attempts to use FU when none available (Count)
system.cpu.statFuBusy::IprAccess                    0      0.00%    100.00% # attempts to use FU when none available (Count)
system.cpu.statFuBusy::InstPrefetch                 0      0.00%    100.00% # attempts to use FU when none available (Count)
system.cpu.statIssuedInstType_0::No_OpClass           48      0.00%      0.00% # Number of instructions issued per FU type, per thread (Count)
system.cpu.statIssuedInstType_0::IntAlu      28838513     60.41%     60.41% # Number of instructions issued per FU type, per thread (Count)
system.cpu.statIssuedInstType_0::IntMult       225075      0.47%     60.89% # Number of instructions issued per FU type, per thread (Count)
system.cpu.statIssuedInstType_0::IntDiv           105      0.00%     60.89% # Number of instructions issued per FU type, per thread (Count)
system.cpu.statIssuedInstType_0::FloatAdd           30      0.00%     60.89% # Number of instructions issued per FU type, per thread (Count)
system.cpu.statIssuedInstType_0::FloatCmp            0      0.00%     60.89% # Number of instructions issued per FU type, per thread (Count)
system.cpu.statIssuedInstType_0::FloatCvt            0      0.00%     60.89% # Number of instructions issued per FU type, per thread (Count)
system.cpu.statIssuedInstType_0::FloatMult            0      0.00%     60.89% # Number of instructions issued per FU type, per thread (Count)
system.cpu.statIssuedInstType_0::FloatMultAcc            0      0.00%     60.89% # Number of instructions issued per FU type, per thread (Count)
system.cpu.statIssuedInstType_0::FloatDiv            0      0.00%     60.89% # Number of instructions issued per FU type, per thread (Count)
system.cpu.statIssuedInstType_0::FloatMisc            0      0.00%     60.89% # Number of instructions issued per FU type, per thread (Count)
system.cpu.statIssuedInstType_0::FloatSqrt            0      0.00%     60.89% # Number of instructions issued per FU type, per thread (Count)
system.cpu.statIssuedInstType_0::SimdAdd            0      0.00%     60.89% # Number of instructions issued per FU type, per thread (Count)
system.cpu.statIssuedInstType_0::SimdAddAcc            0      0.00%     60.89% # Number of instructions issued per FU type, per thread (Count)
system.cpu.statIssuedInstType_0::SimdAlu           60      0.00%     60.89% # Number of instructions issued per FU type, per thread (Count)
system.cpu.statIssuedInstType_0::SimdCmp            0      0.00%     60.89% # Number of instructions issued per FU type, per thread (Count)
system.cpu.statIssuedInstType_0::SimdCvt          120      0.00%     60.89% # Number of instructions issued per FU type, per thread (Count)
system.cpu.statIssuedInstType_0::SimdMisc          330      0.00%     60.89% # Number of instructions issued per FU type, per thread (Count)
system.cpu.statIssuedInstType_0::SimdMult            0      0.00%     60.89% # Number of instructions issued per FU type, per thread (Count)
system.cpu.statIssuedInstType_0::SimdMultAcc            0      0.00%     60.89% # Number of instructions issued per FU type, per thread (Count)
system.cpu.statIssuedInstType_0::SimdShift            0      0.00%     60.89% # Number of instructions issued per FU type, per thread (Count)
system.cpu.statIssuedInstType_0::SimdShiftAcc            0      0.00%     60.89% # Number of instructions issued per FU type, per thread (Count)
system.cpu.statIssuedInstType_0::SimdDiv            0      0.00%     60.89% # Number of instructions issued per FU type, per thread (Count)
system.cpu.statIssuedInstType_0::SimdSqrt            0      0.00%     60.89% # Number of instructions issued per FU type, per thread (Count)
system.cpu.statIssuedInstType_0::SimdFloatAdd            0      0.00%     60.89% # Number of instructions issued per FU type, per thread (Count)
system.cpu.statIssuedInstType_0::SimdFloatAlu            0      0.00%     60.89% # Number of instructions issued per FU type, per thread (Count)
system.cpu.statIssuedInstType_0::SimdFloatCmp            0      0.00%     60.89% # Number of instructions issued per FU type, per thread (Count)
system.cpu.statIssuedInstType_0::SimdFloatCvt            0      0.00%     60.89% # Number of instructions issued per FU type, per thread (Count)
system.cpu.statIssuedInstType_0::SimdFloatDiv            0      0.00%     60.89% # Number of instructions issued per FU type, per thread (Count)
system.cpu.statIssuedInstType_0::SimdFloatMisc            0      0.00%     60.89% # Number of instructions issued per FU type, per thread (Count)
system.cpu.statIssuedInstType_0::SimdFloatMult            0      0.00%     60.89% # Number of instructions issued per FU type, per thread (Count)
system.cpu.statIssuedInstType_0::SimdFloatMultAcc            0      0.00%     60.89% # Number of instructions issued per FU type, per thread (Count)
system.cpu.statIssuedInstType_0::SimdFloatSqrt            0      0.00%     60.89% # Number of instructions issued per FU type, per thread (Count)
system.cpu.statIssuedInstType_0::SimdReduceAdd            0      0.00%     60.89% # Number of instructions issued per FU type, per thread (Count)
system.cpu.statIssuedInstType_0::SimdReduceAlu            0      0.00%     60.89% # Number of instructions issued per FU type, per thread (Count)
system.cpu.statIssuedInstType_0::SimdReduceCmp            0      0.00%     60.89% # Number of instructions issued per FU type, per thread (Count)
system.cpu.statIssuedInstType_0::SimdFloatReduceAdd            0      0.00%     60.89% # Number of instructions issued per FU type, per thread (Count)
system.cpu.statIssuedInstType_0::SimdFloatReduceCmp            0      0.00%     60.89% # Number of instructions issued per FU type, per thread (Count)
system.cpu.statIssuedInstType_0::SimdAes            0      0.00%     60.89% # Number of instructions issued per FU type, per thread (Count)
system.cpu.statIssuedInstType_0::SimdAesMix            0      0.00%     60.89% # Number of instructions issued per FU type, per thread (Count)
system.cpu.statIssuedInstType_0::SimdSha1Hash            0      0.00%     60.89% # Number of instructions issued per FU type, per thread (Count)
system.cpu.statIssuedInstType_0::SimdSha1Hash2            0      0.00%     60.89% # Number of instructions issued per FU type, per thread (Count)
system.cpu.statIssuedInstType_0::SimdSha256Hash            0      0.00%     60.89% # Number of instructions issued per FU type, per thread (Count)
system.cpu.statIssuedInstType_0::SimdSha256Hash2            0      0.00%     60.89% # Number of instructions issued per FU type, per thread (Count)
system.cpu.statIssuedInstType_0::SimdShaSigma2            0      0.00%     60.89% # Number of instructions issued per FU type, per thread (Count)
system.cpu.statIssuedInstType_0::SimdShaSigma3            0      0.00%     60.89% # Number of instructions issued per FU type, per thread (Count)
system.cpu.statIssuedInstType_0::SimdPredAlu            0      0.00%     60.89% # Number of instructions issued per FU type, per thread (Count)
system.cpu.statIssuedInstType_0::MemRead     15370391     32.20%     93.09% # Number of instructions issued per FU type, per thread (Count)
system.cpu.statIssuedInstType_0::MemWrite      3299441      6.91%    100.00% # Number of instructions issued per FU type, per thread (Count)
system.cpu.statIssuedInstType_0::FloatMemRead           60      0.00%    100.00% # Number of instructions issued per FU type, per thread (Count)
system.cpu.statIssuedInstType_0::FloatMemWrite            4      0.00%    100.00% # Number of instructions issued per FU type, per thread (Count)
system.cpu.statIssuedInstType_0::IprAccess            0      0.00%    100.00% # Number of instructions issued per FU type, per thread (Count)
system.cpu.statIssuedInstType_0::InstPrefetch            0      0.00%    100.00% # Number of instructions issued per FU type, per thread (Count)
system.cpu.statIssuedInstType_0::total       47734177                       # Number of instructions issued per FU type, per thread (Count)
system.cpu.issueRate                         1.819588                       # Inst issue rate ((Count/Cycle))
system.cpu.fuBusy                               23235                       # FU busy when requested (Count)
system.cpu.fuBusyRate                        0.000487                       # FU busy rate (busy events/executed inst) ((Count/Count))
system.cpu.intInstQueueReads                121654748                       # Number of integer instruction queue reads (Count)
system.cpu.intInstQueueWrites                61016005                       # Number of integer instruction queue writes (Count)
system.cpu.intInstQueueWakeupAccesses        46353270                       # Number of integer instruction queue wakeup accesses (Count)
system.cpu.fpInstQueueReads                      1450                       # Number of floating instruction queue reads (Count)
system.cpu.fpInstQueueWrites                      698                       # Number of floating instruction queue writes (Count)
system.cpu.fpInstQueueWakeupAccesses              694                       # Number of floating instruction queue wakeup accesses (Count)
system.cpu.vecInstQueueReads                        0                       # Number of vector instruction queue reads (Count)
system.cpu.vecInstQueueWrites                       0                       # Number of vector instruction queue writes (Count)
system.cpu.vecInstQueueWakeupAccesses               0                       # Number of vector instruction queue wakeup accesses (Count)
system.cpu.intAluAccesses                    47756608                       # Number of integer alu accesses (Count)
system.cpu.fpAluAccesses                          756                       # Number of floating point alu accesses (Count)
system.cpu.vecAluAccesses                           0                       # Number of vector alu accesses (Count)
system.cpu.numInsts                          47019737                       # Number of executed instructions (Count)
system.cpu.numLoadInsts                      15025511                       # Number of load instructions executed (Count)
system.cpu.numSquashedInsts                    714441                       # Number of squashed instructions skipped in execute (Count)
system.cpu.numSwp                                   0                       # Number of swp insts executed (Count)
system.cpu.numNop                                   0                       # Number of nop insts executed (Count)
system.cpu.numRefs                           18269722                       # Number of memory reference insts executed (Count)
system.cpu.numBranches                        3289131                       # Number of branches executed (Count)
system.cpu.numStoreInsts                      3244211                       # Number of stores executed (Count)
system.cpu.numRate                           1.792354                       # Inst execution rate ((Count/Cycle))
system.cpu.timesIdled                            1083                       # Number of times that the entire CPU went into an idle state and unscheduled itself (Count)
system.cpu.idleCycles                           69134                       # Total number of cycles that the CPU has spent unscheduled due to idling (Cycle)
system.cpu.committedInsts                    25467459                       # Number of Instructions Simulated (Count)
system.cpu.committedOps                      39195877                       # Number of Ops (including micro ops) Simulated (Count)
system.cpu.cpi                               1.030080                       # CPI: Cycles Per Instruction ((Cycle/Count))
system.cpu.totalCpi                          1.030080                       # CPI: Total CPI of All Threads ((Cycle/Count))
system.cpu.ipc                               0.970799                       # IPC: Instructions Per Cycle ((Count/Cycle))
system.cpu.totalIpc                          0.970799                       # IPC: Total IPC of All Threads ((Count/Cycle))
system.cpu.intRegfileReads                   57156960                       # Number of integer regfile reads (Count)
system.cpu.intRegfileWrites                  37659043                       # Number of integer regfile writes (Count)
system.cpu.fpRegfileReads                        1234                       # Number of floating regfile reads (Count)
system.cpu.fpRegfileWrites                        570                       # Number of floating regfile writes (Count)
system.cpu.ccRegfileReads                    11916521                       # number of cc regfile reads (Count)
system.cpu.ccRegfileWrites                   15110236                       # number of cc regfile writes (Count)
system.cpu.miscRegfileReads                  25412182                       # number of misc regfile reads (Count)
system.cpu.MemDepUnit__0.insertedLoads       15842361                       # Number of loads inserted to the mem dependence unit. (Count)
system.cpu.MemDepUnit__0.insertedStores       3537472                       # Number of stores inserted to the mem dependence unit. (Count)
system.cpu.MemDepUnit__0.conflictingLoads      3350535                       # Number of conflicting loads. (Count)
system.cpu.MemDepUnit__0.conflictingStores       415203                       # Number of conflicting stores. (Count)
system.cpu.MemDepUnit__1.insertedLoads              0                       # Number of loads inserted to the mem dependence unit. (Count)
system.cpu.MemDepUnit__1.insertedStores             0                       # Number of stores inserted to the mem dependence unit. (Count)
system.cpu.MemDepUnit__1.conflictingLoads            0                       # Number of conflicting loads. (Count)
system.cpu.MemDepUnit__1.conflictingStores            0                       # Number of conflicting stores. (Count)
system.cpu.MemDepUnit__2.insertedLoads              0                       # Number of loads inserted to the mem dependence unit. (Count)
system.cpu.MemDepUnit__2.insertedStores             0                       # Number of stores inserted to the mem dependence unit. (Count)
system.cpu.MemDepUnit__2.conflictingLoads            0                       # Number of conflicting loads. (Count)
system.cpu.MemDepUnit__2.conflictingStores            0                       # Number of conflicting stores. (Count)
system.cpu.MemDepUnit__3.insertedLoads              0                       # Number of loads inserted to the mem dependence unit. (Count)
system.cpu.MemDepUnit__3.insertedStores             0                       # Number of stores inserted to the mem dependence unit. (Count)
system.cpu.MemDepUnit__3.conflictingLoads            0                       # Number of conflicting loads. (Count)
system.cpu.MemDepUnit__3.conflictingStores            0                       # Number of conflicting stores. (Count)
system.cpu.branchPred.lookups                 4976303                       # Number of BP lookups (Count)
system.cpu.branchPred.condPredicted           3685006                       # Number of conditional branches predicted (Count)
system.cpu.branchPred.condIncorrect            537980                       # Number of conditional branches incorrect (Count)
system.cpu.branchPred.BTBLookups              3174768                       # Number of BTB lookups (Count)
system.cpu.branchPred.BTBHits                 3174603                       # Number of BTB hits (Count)
system.cpu.branchPred.BTBHitRatio            0.999948                       # BTB Hit Ratio (Ratio)
system.cpu.branchPred.RASUsed                  213500                       # Number of times the RAS was used to get a target. (Count)
system.cpu.branchPred.RASIncorrect                255                       # Number of incorrect RAS predictions. (Count)
system.cpu.branchPred.indirectLookups             222                       # Number of indirect predictor lookups. (Count)
system.cpu.branchPred.indirectHits                162                       # Number of indirect target hits. (Count)
system.cpu.branchPred.indirectMisses               60                       # Number of indirect misses. (Count)
system.cpu.branchPred.indirectMispredicted           14                       # Number of mispredicted indirect branches. (Count)
system.cpu.commit.commitSquashedInsts        10909783                       # The number of squashed insts skipped by commit (Count)
system.cpu.commit.commitNonSpecStalls               1                       # The number of times commit has been forced to stall to communicate backwards (Count)
system.cpu.commit.branchMispredicts            537934                       # The number of times a branch was mispredicted (Count)
system.cpu.commit.numCommittedDist::samples     24500559                       # Number of insts commited each cycle (Count)
system.cpu.commit.numCommittedDist::mean     1.599795                       # Number of insts commited each cycle (Count)
system.cpu.commit.numCommittedDist::stdev     1.881466                       # Number of insts commited each cycle (Count)
system.cpu.commit.numCommittedDist::underflows            0      0.00%      0.00% # Number of insts commited each cycle (Count)
system.cpu.commit.numCommittedDist::0         9603773     39.20%     39.20% # Number of insts commited each cycle (Count)
system.cpu.commit.numCommittedDist::1         5391337     22.00%     61.20% # Number of insts commited each cycle (Count)
system.cpu.commit.numCommittedDist::2         3439893     14.04%     75.24% # Number of insts commited each cycle (Count)
system.cpu.commit.numCommittedDist::3         2385735      9.74%     84.98% # Number of insts commited each cycle (Count)
system.cpu.commit.numCommittedDist::4          882142      3.60%     88.58% # Number of insts commited each cycle (Count)
system.cpu.commit.numCommittedDist::5          547093      2.23%     90.81% # Number of insts commited each cycle (Count)
system.cpu.commit.numCommittedDist::6         2250586      9.19%    100.00% # Number of insts commited each cycle (Count)
system.cpu.commit.numCommittedDist::overflows            0      0.00%    100.00% # Number of insts commited each cycle (Count)
system.cpu.commit.numCommittedDist::min_value            0                       # Number of insts commited each cycle (Count)
system.cpu.commit.numCommittedDist::max_value            6                       # Number of insts commited each cycle (Count)
system.cpu.commit.numCommittedDist::total     24500559                       # Number of insts commited each cycle (Count)
system.cpu.commit.instsCommitted             25467459                       # Number of instructions committed (Count)
system.cpu.commit.opsCommitted               39195877                       # Number of ops (including micro ops) committed (Count)
system.cpu.commit.memRefs                    14857744                       # Number of memory references committed (Count)
system.cpu.commit.loads                      11958887                       # Number of loads committed (Count)
system.cpu.commit.amos                              0                       # Number of atomic instructions committed (Count)
system.cpu.commit.membars                           0                       # Number of memory barriers committed (Count)
system.cpu.commit.branches                    2923534                       # Number of branches committed (Count)
system.cpu.commit.vectorInstructions                0                       # Number of committed Vector instructions. (Count)
system.cpu.commit.floating                        690                       # Number of committed floating point instructions. (Count)
system.cpu.commit.integer                    39195306                       # Number of committed integer instructions. (Count)
system.cpu.commit.functionCalls                141796                       # Number of function calls committed. (Count)
system.cpu.commit.committedInstType_0::No_OpClass           45      0.00%      0.00% # Class of committed instruction (Count)
system.cpu.commit.committedInstType_0::IntAlu     24112368     61.52%     61.52% # Class of committed instruction (Count)
system.cpu.commit.committedInstType_0::IntMult       225075      0.57%     62.09% # Class of committed instruction (Count)
system.cpu.commit.committedInstType_0::IntDiv          105      0.00%     62.09% # Class of committed instruction (Count)
system.cpu.commit.committedInstType_0::FloatAdd           30      0.00%     62.09% # Class of committed instruction (Count)
system.cpu.commit.committedInstType_0::FloatCmp            0      0.00%     62.09% # Class of committed instruction (Count)
system.cpu.commit.committedInstType_0::FloatCvt            0      0.00%     62.09% # Class of committed instruction (Count)
system.cpu.commit.committedInstType_0::FloatMult            0      0.00%     62.09% # Class of committed instruction (Count)
system.cpu.commit.committedInstType_0::FloatMultAcc            0      0.00%     62.09% # Class of committed instruction (Count)
system.cpu.commit.committedInstType_0::FloatDiv            0      0.00%     62.09% # Class of committed instruction (Count)
system.cpu.commit.committedInstType_0::FloatMisc            0      0.00%     62.09% # Class of committed instruction (Count)
system.cpu.commit.committedInstType_0::FloatSqrt            0      0.00%     62.09% # Class of committed instruction (Count)
system.cpu.commit.committedInstType_0::SimdAdd            0      0.00%     62.09% # Class of committed instruction (Count)
system.cpu.commit.committedInstType_0::SimdAddAcc            0      0.00%     62.09% # Class of committed instruction (Count)
system.cpu.commit.committedInstType_0::SimdAlu           60      0.00%     62.09% # Class of committed instruction (Count)
system.cpu.commit.committedInstType_0::SimdCmp            0      0.00%     62.09% # Class of committed instruction (Count)
system.cpu.commit.committedInstType_0::SimdCvt          120      0.00%     62.09% # Class of committed instruction (Count)
system.cpu.commit.committedInstType_0::SimdMisc          330      0.00%     62.09% # Class of committed instruction (Count)
system.cpu.commit.committedInstType_0::SimdMult            0      0.00%     62.09% # Class of committed instruction (Count)
system.cpu.commit.committedInstType_0::SimdMultAcc            0      0.00%     62.09% # Class of committed instruction (Count)
system.cpu.commit.committedInstType_0::SimdShift            0      0.00%     62.09% # Class of committed instruction (Count)
system.cpu.commit.committedInstType_0::SimdShiftAcc            0      0.00%     62.09% # Class of committed instruction (Count)
system.cpu.commit.committedInstType_0::SimdDiv            0      0.00%     62.09% # Class of committed instruction (Count)
system.cpu.commit.committedInstType_0::SimdSqrt            0      0.00%     62.09% # Class of committed instruction (Count)
system.cpu.commit.committedInstType_0::SimdFloatAdd            0      0.00%     62.09% # Class of committed instruction (Count)
system.cpu.commit.committedInstType_0::SimdFloatAlu            0      0.00%     62.09% # Class of committed instruction (Count)
system.cpu.commit.committedInstType_0::SimdFloatCmp            0      0.00%     62.09% # Class of committed instruction (Count)
system.cpu.commit.committedInstType_0::SimdFloatCvt            0      0.00%     62.09% # Class of committed instruction (Count)
system.cpu.commit.committedInstType_0::SimdFloatDiv            0      0.00%     62.09% # Class of committed instruction (Count)
system.cpu.commit.committedInstType_0::SimdFloatMisc            0      0.00%     62.09% # Class of committed instruction (Count)
system.cpu.commit.committedInstType_0::SimdFloatMult            0      0.00%     62.09% # Class of committed instruction (Count)
system.cpu.commit.committedInstType_0::SimdFloatMultAcc            0      0.00%     62.09% # Class of committed instruction (Count)
system.cpu.commit.committedInstType_0::SimdFloatSqrt            0      0.00%     62.09% # Class of committed instruction (Count)
system.cpu.commit.committedInstType_0::SimdReduceAdd            0      0.00%     62.09% # Class of committed instruction (Count)
system.cpu.commit.committedInstType_0::SimdReduceAlu            0      0.00%     62.09% # Class of committed instruction (Count)
system.cpu.commit.committedInstType_0::SimdReduceCmp            0      0.00%     62.09% # Class of committed instruction (Count)
system.cpu.commit.committedInstType_0::SimdFloatReduceAdd            0      0.00%     62.09% # Class of committed instruction (Count)
system.cpu.commit.committedInstType_0::SimdFloatReduceCmp            0      0.00%     62.09% # Class of committed instruction (Count)
system.cpu.commit.committedInstType_0::SimdAes            0      0.00%     62.09% # Class of committed instruction (Count)
system.cpu.commit.committedInstType_0::SimdAesMix            0      0.00%     62.09% # Class of committed instruction (Count)
system.cpu.commit.committedInstType_0::SimdSha1Hash            0      0.00%     62.09% # Class of committed instruction (Count)
system.cpu.commit.committedInstType_0::SimdSha1Hash2            0      0.00%     62.09% # Class of committed instruction (Count)
system.cpu.commit.committedInstType_0::SimdSha256Hash            0      0.00%     62.09% # Class of committed instruction (Count)
system.cpu.commit.committedInstType_0::SimdSha256Hash2            0      0.00%     62.09% # Class of committed instruction (Count)
system.cpu.commit.committedInstType_0::SimdShaSigma2            0      0.00%     62.09% # Class of committed instruction (Count)
system.cpu.commit.committedInstType_0::SimdShaSigma3            0      0.00%     62.09% # Class of committed instruction (Count)
system.cpu.commit.committedInstType_0::SimdPredAlu            0      0.00%     62.09% # Class of committed instruction (Count)
system.cpu.commit.committedInstType_0::MemRead     11958827     30.51%     92.60% # Class of committed instruction (Count)
system.cpu.commit.committedInstType_0::MemWrite      2898857      7.40%    100.00% # Class of committed instruction (Count)
system.cpu.commit.committedInstType_0::FloatMemRead           60      0.00%    100.00% # Class of committed instruction (Count)
system.cpu.commit.committedInstType_0::FloatMemWrite            0      0.00%    100.00% # Class of committed instruction (Count)
system.cpu.commit.committedInstType_0::IprAccess            0      0.00%    100.00% # Class of committed instruction (Count)
system.cpu.commit.committedInstType_0::InstPrefetch            0      0.00%    100.00% # Class of committed instruction (Count)
system.cpu.commit.committedInstType_0::total     39195877                       # Class of committed instruction (Count)
system.cpu.commit.commitEligibleSamples       2250586                       # number cycles where commit BW limit reached (Cycle)
system.cpu.dcache.demandHits::cpu.data       13706740                       # number of demand (read+write) hits (Count)
system.cpu.dcache.demandHits::total          13706740                       # number of demand (read+write) hits (Count)
system.cpu.dcache.overallHits::cpu.data      13706740                       # number of overall hits (Count)
system.cpu.dcache.overallHits::total         13706740                       # number of overall hits (Count)
system.cpu.dcache.demandMisses::cpu.data        62344                       # number of demand (read+write) misses (Count)
system.cpu.dcache.demandMisses::total           62344                       # number of demand (read+write) misses (Count)
system.cpu.dcache.overallMisses::cpu.data        62344                       # number of overall misses (Count)
system.cpu.dcache.overallMisses::total          62344                       # number of overall misses (Count)
system.cpu.dcache.demandMissLatency::cpu.data    727259500                       # number of demand (read+write) miss ticks (Tick)
system.cpu.dcache.demandMissLatency::total    727259500                       # number of demand (read+write) miss ticks (Tick)
system.cpu.dcache.overallMissLatency::cpu.data    727259500                       # number of overall miss ticks (Tick)
system.cpu.dcache.overallMissLatency::total    727259500                       # number of overall miss ticks (Tick)
system.cpu.dcache.demandAccesses::cpu.data     13769084                       # number of demand (read+write) accesses (Count)
system.cpu.dcache.demandAccesses::total      13769084                       # number of demand (read+write) accesses (Count)
system.cpu.dcache.overallAccesses::cpu.data     13769084                       # number of overall (read+write) accesses (Count)
system.cpu.dcache.overallAccesses::total     13769084                       # number of overall (read+write) accesses (Count)
system.cpu.dcache.demandMissRate::cpu.data     0.004528                       # miss rate for demand accesses (Ratio)
system.cpu.dcache.demandMissRate::total      0.004528                       # miss rate for demand accesses (Ratio)
system.cpu.dcache.overallMissRate::cpu.data     0.004528                       # miss rate for overall accesses (Ratio)
system.cpu.dcache.overallMissRate::total     0.004528                       # miss rate for overall accesses (Ratio)
system.cpu.dcache.demandAvgMissLatency::cpu.data 11665.268510                       # average overall miss latency in ticks ((Tick/Count))
system.cpu.dcache.demandAvgMissLatency::total 11665.268510                       # average overall miss latency in ticks ((Tick/Count))
system.cpu.dcache.overallAvgMissLatency::cpu.data 11665.268510                       # average overall miss latency ((Tick/Count))
system.cpu.dcache.overallAvgMissLatency::total 11665.268510                       # average overall miss latency ((Tick/Count))
system.cpu.dcache.blockedCycles::no_mshrs          816                       # number of cycles access was blocked (Cycle)
system.cpu.dcache.blockedCycles::no_targets            0                       # number of cycles access was blocked (Cycle)
system.cpu.dcache.blockedCauses::no_mshrs           53                       # number of times access was blocked (Count)
system.cpu.dcache.blockedCauses::no_targets            0                       # number of times access was blocked (Count)
system.cpu.dcache.avgBlocked::no_mshrs      15.396226                       # average number of cycles each access was blocked ((Cycle/Count))
system.cpu.dcache.avgBlocked::no_targets          nan                       # average number of cycles each access was blocked ((Cycle/Count))
system.cpu.dcache.writebacks::writebacks        29360                       # number of writebacks (Count)
system.cpu.dcache.writebacks::total             29360                       # number of writebacks (Count)
system.cpu.dcache.demandMshrHits::cpu.data        32701                       # number of demand (read+write) MSHR hits (Count)
system.cpu.dcache.demandMshrHits::total         32701                       # number of demand (read+write) MSHR hits (Count)
system.cpu.dcache.overallMshrHits::cpu.data        32701                       # number of overall MSHR hits (Count)
system.cpu.dcache.overallMshrHits::total        32701                       # number of overall MSHR hits (Count)
system.cpu.dcache.demandMshrMisses::cpu.data        29643                       # number of demand (read+write) MSHR misses (Count)
system.cpu.dcache.demandMshrMisses::total        29643                       # number of demand (read+write) MSHR misses (Count)
system.cpu.dcache.overallMshrMisses::cpu.data        29643                       # number of overall MSHR misses (Count)
system.cpu.dcache.overallMshrMisses::total        29643                       # number of overall MSHR misses (Count)
system.cpu.dcache.demandMshrMissLatency::cpu.data    407479500                       # number of demand (read+write) MSHR miss ticks (Tick)
system.cpu.dcache.demandMshrMissLatency::total    407479500                       # number of demand (read+write) MSHR miss ticks (Tick)
system.cpu.dcache.overallMshrMissLatency::cpu.data    407479500                       # number of overall MSHR miss ticks (Tick)
system.cpu.dcache.overallMshrMissLatency::total    407479500                       # number of overall MSHR miss ticks (Tick)
system.cpu.dcache.demandMshrMissRate::cpu.data     0.002153                       # mshr miss ratio for demand accesses (Ratio)
system.cpu.dcache.demandMshrMissRate::total     0.002153                       # mshr miss ratio for demand accesses (Ratio)
system.cpu.dcache.overallMshrMissRate::cpu.data     0.002153                       # mshr miss ratio for overall accesses (Ratio)
system.cpu.dcache.overallMshrMissRate::total     0.002153                       # mshr miss ratio for overall accesses (Ratio)
system.cpu.dcache.demandAvgMshrMissLatency::cpu.data 13746.230139                       # average overall mshr miss latency ((Tick/Count))
system.cpu.dcache.demandAvgMshrMissLatency::total 13746.230139                       # average overall mshr miss latency ((Tick/Count))
system.cpu.dcache.overallAvgMshrMissLatency::cpu.data 13746.230139                       # average overall mshr miss latency ((Tick/Count))
system.cpu.dcache.overallAvgMshrMissLatency::total 13746.230139                       # average overall mshr miss latency ((Tick/Count))
system.cpu.dcache.replacements                  29643                       # number of replacements (Count)
system.cpu.dcache.ReadReq.hits::cpu.data     10814679                       # number of ReadReq hits (Count)
system.cpu.dcache.ReadReq.hits::total        10814679                       # number of ReadReq hits (Count)
system.cpu.dcache.ReadReq.misses::cpu.data        55548                       # number of ReadReq misses (Count)
system.cpu.dcache.ReadReq.misses::total         55548                       # number of ReadReq misses (Count)
system.cpu.dcache.ReadReq.missLatency::cpu.data    587500500                       # number of ReadReq miss ticks (Tick)
system.cpu.dcache.ReadReq.missLatency::total    587500500                       # number of ReadReq miss ticks (Tick)
system.cpu.dcache.ReadReq.accesses::cpu.data     10870227                       # number of ReadReq accesses(hits+misses) (Count)
system.cpu.dcache.ReadReq.accesses::total     10870227                       # number of ReadReq accesses(hits+misses) (Count)
system.cpu.dcache.ReadReq.missRate::cpu.data     0.005110                       # miss rate for ReadReq accesses (Ratio)
system.cpu.dcache.ReadReq.missRate::total     0.005110                       # miss rate for ReadReq accesses (Ratio)
system.cpu.dcache.ReadReq.avgMissLatency::cpu.data 10576.447397                       # average ReadReq miss latency ((Tick/Count))
system.cpu.dcache.ReadReq.avgMissLatency::total 10576.447397                       # average ReadReq miss latency ((Tick/Count))
system.cpu.dcache.ReadReq.mshrHits::cpu.data        32694                       # number of ReadReq MSHR hits (Count)
system.cpu.dcache.ReadReq.mshrHits::total        32694                       # number of ReadReq MSHR hits (Count)
system.cpu.dcache.ReadReq.mshrMisses::cpu.data        22854                       # number of ReadReq MSHR misses (Count)
system.cpu.dcache.ReadReq.mshrMisses::total        22854                       # number of ReadReq MSHR misses (Count)
system.cpu.dcache.ReadReq.mshrMissLatency::cpu.data    274581000                       # number of ReadReq MSHR miss ticks (Tick)
system.cpu.dcache.ReadReq.mshrMissLatency::total    274581000                       # number of ReadReq MSHR miss ticks (Tick)
system.cpu.dcache.ReadReq.mshrMissRate::cpu.data     0.002102                       # mshr miss rate for ReadReq accesses (Ratio)
system.cpu.dcache.ReadReq.mshrMissRate::total     0.002102                       # mshr miss rate for ReadReq accesses (Ratio)
system.cpu.dcache.ReadReq.avgMshrMissLatency::cpu.data 12014.570753                       # average ReadReq mshr miss latency ((Tick/Count))
system.cpu.dcache.ReadReq.avgMshrMissLatency::total 12014.570753                       # average ReadReq mshr miss latency ((Tick/Count))
system.cpu.dcache.WriteReq.hits::cpu.data      2892061                       # number of WriteReq hits (Count)
system.cpu.dcache.WriteReq.hits::total        2892061                       # number of WriteReq hits (Count)
system.cpu.dcache.WriteReq.misses::cpu.data         6796                       # number of WriteReq misses (Count)
system.cpu.dcache.WriteReq.misses::total         6796                       # number of WriteReq misses (Count)
system.cpu.dcache.WriteReq.missLatency::cpu.data    139759000                       # number of WriteReq miss ticks (Tick)
system.cpu.dcache.WriteReq.missLatency::total    139759000                       # number of WriteReq miss ticks (Tick)
system.cpu.dcache.WriteReq.accesses::cpu.data      2898857                       # number of WriteReq accesses(hits+misses) (Count)
system.cpu.dcache.WriteReq.accesses::total      2898857                       # number of WriteReq accesses(hits+misses) (Count)
system.cpu.dcache.WriteReq.missRate::cpu.data     0.002344                       # miss rate for WriteReq accesses (Ratio)
system.cpu.dcache.WriteReq.missRate::total     0.002344                       # miss rate for WriteReq accesses (Ratio)
system.cpu.dcache.WriteReq.avgMissLatency::cpu.data 20564.891112                       # average WriteReq miss latency ((Tick/Count))
system.cpu.dcache.WriteReq.avgMissLatency::total 20564.891112                       # average WriteReq miss latency ((Tick/Count))
system.cpu.dcache.WriteReq.mshrHits::cpu.data            7                       # number of WriteReq MSHR hits (Count)
system.cpu.dcache.WriteReq.mshrHits::total            7                       # number of WriteReq MSHR hits (Count)
system.cpu.dcache.WriteReq.mshrMisses::cpu.data         6789                       # number of WriteReq MSHR misses (Count)
system.cpu.dcache.WriteReq.mshrMisses::total         6789                       # number of WriteReq MSHR misses (Count)
system.cpu.dcache.WriteReq.mshrMissLatency::cpu.data    132898500                       # number of WriteReq MSHR miss ticks (Tick)
system.cpu.dcache.WriteReq.mshrMissLatency::total    132898500                       # number of WriteReq MSHR miss ticks (Tick)
system.cpu.dcache.WriteReq.mshrMissRate::cpu.data     0.002342                       # mshr miss rate for WriteReq accesses (Ratio)
system.cpu.dcache.WriteReq.mshrMissRate::total     0.002342                       # mshr miss rate for WriteReq accesses (Ratio)
system.cpu.dcache.WriteReq.avgMshrMissLatency::cpu.data 19575.563411                       # average WriteReq mshr miss latency ((Tick/Count))
system.cpu.dcache.WriteReq.avgMshrMissLatency::total 19575.563411                       # average WriteReq mshr miss latency ((Tick/Count))
system.cpu.dcache.power_state.pwrStateResidencyTicks::UNDEFINED  14173255500                       # Cumulative time (in ticks) in various power states (Tick)
system.cpu.dcache.tags.tagsInUse                   64                       # Average ticks per tags in use ((Tick/Count))
system.cpu.dcache.tags.totalRefs             13686341                       # Total number of references to valid blocks. (Count)
system.cpu.dcache.tags.sampledRefs              29643                       # Sample count of references to valid blocks. (Count)
system.cpu.dcache.tags.avgRefs             461.705664                       # Average number of references to valid blocks. ((Count/Count))
system.cpu.dcache.tags.warmupTick            12237000                       # The tick when the warmup percentage was hit. (Tick)
system.cpu.dcache.tags.occupancies::cpu.data           64                       # Average occupied blocks per tick, per requestor ((Count/Tick))
system.cpu.dcache.tags.avgOccs::cpu.data            1                       # Average percentage of cache occupancy ((Ratio/Tick))
system.cpu.dcache.tags.avgOccs::total               1                       # Average percentage of cache occupancy ((Ratio/Tick))
system.cpu.dcache.tags.occupanciesTaskId::1024           64                       # Occupied blocks per task id (Count)
system.cpu.dcache.tags.ageTaskId_1024::0           36                       # Occupied blocks per task id, per block age (Count)
system.cpu.dcache.tags.ageTaskId_1024::1           18                       # Occupied blocks per task id, per block age (Count)
system.cpu.dcache.tags.ageTaskId_1024::2           10                       # Occupied blocks per task id, per block age (Count)
system.cpu.dcache.tags.ratioOccsTaskId::1024            1                       # Ratio of occupied blocks and all blocks, per task id (Ratio)
system.cpu.dcache.tags.tagAccesses           27567811                       # Number of tag accesses (Count)
system.cpu.dcache.tags.dataAccesses          27567811                       # Number of data accesses (Count)
system.cpu.dcache.tags.power_state.pwrStateResidencyTicks::UNDEFINED  14173255500                       # Cumulative time (in ticks) in various power states (Tick)
system.cpu.decode.idleCycles                  3155082                       # Number of cycles decode is idle (Cycle)
system.cpu.decode.blockedCycles              13140986                       # Number of cycles decode is blocked (Cycle)
system.cpu.decode.runCycles                   5168346                       # Number of cycles decode is running (Cycle)
system.cpu.decode.unblockCycles               4161568                       # Number of cycles decode is unblocking (Cycle)
system.cpu.decode.squashCycles                 538398                       # Number of cycles decode is squashing (Cycle)
system.cpu.decode.branchResolved              2433592                       # Number of times decode resolved a branch (Count)
system.cpu.decode.branchMispred                    46                       # Number of times decode detected a branch misprediction (Count)
system.cpu.decode.decodedInsts               53771682                       # Number of instructions handled by decode (Count)
system.cpu.decode.squashedInsts                   109                       # Number of squashed instructions handled by decode (Count)
system.cpu.fetch.icacheStallCycles            4925030                       # Number of cycles fetch is stalled on an Icache miss (Cycle)
system.cpu.fetch.insts                       46507098                       # Number of instructions fetch has processed (Count)
system.cpu.fetch.branches                     4976303                       # Number of branches that fetch encountered (Count)
system.cpu.fetch.predictedBranches            3388265                       # Number of branches that fetch has predicted taken (Count)
system.cpu.fetch.cycles                      20700891                       # Number of cycles fetch has run and was not squashing or blocked (Cycle)
system.cpu.fetch.squashCycles                 1076888                       # Number of cycles fetch has spent squashing (Cycle)
system.cpu.fetch.pendingTrapStallCycles            15                       # Number of stall cycles due to pending traps (Cycle)
system.cpu.fetch.cacheLines                   4642074                       # Number of cache lines fetched (Count)
system.cpu.fetch.icacheSquashes                 91984                       # Number of outstanding Icache misses that were squashed (Count)
system.cpu.fetch.nisnDist::samples           26164380                       # Number of instructions fetched each cycle (Total) (Count)
system.cpu.fetch.nisnDist::mean              2.683153                       # Number of instructions fetched each cycle (Total) (Count)
system.cpu.fetch.nisnDist::stdev             2.701177                       # Number of instructions fetched each cycle (Total) (Count)
system.cpu.fetch.nisnDist::underflows               0      0.00%      0.00% # Number of instructions fetched each cycle (Total) (Count)
system.cpu.fetch.nisnDist::0                 11571204     44.23%     44.23% # Number of instructions fetched each cycle (Total) (Count)
system.cpu.fetch.nisnDist::1                   698451      2.67%     46.89% # Number of instructions fetched each cycle (Total) (Count)
system.cpu.fetch.nisnDist::2                  1533649      5.86%     52.76% # Number of instructions fetched each cycle (Total) (Count)
system.cpu.fetch.nisnDist::3                  1916501      7.32%     60.08% # Number of instructions fetched each cycle (Total) (Count)
system.cpu.fetch.nisnDist::4                   480122      1.84%     61.92% # Number of instructions fetched each cycle (Total) (Count)
system.cpu.fetch.nisnDist::5                  1019430      3.90%     65.81% # Number of instructions fetched each cycle (Total) (Count)
system.cpu.fetch.nisnDist::6                  8945023     34.19%    100.00% # Number of instructions fetched each cycle (Total) (Count)
system.cpu.fetch.nisnDist::overflows                0      0.00%    100.00% # Number of instructions fetched each cycle (Total) (Count)
system.cpu.fetch.nisnDist::min_value                0                       # Number of instructions fetched each cycle (Total) (Count)
system.cpu.fetch.nisnDist::max_value                6                       # Number of instructions fetched each cycle (Total) (Count)
system.cpu.fetch.nisnDist::total             26164380                       # Number of instructions fetched each cycle (Total) (Count)
system.cpu.fetch.branchRate                  0.189693                       # Number of branch fetches per cycle (Ratio)
system.cpu.fetch.rate                        1.772812                       # Number of inst fetches per cycle ((Count/Cycle))
system.cpu.icache.demandHits::cpu.inst        4640644                       # number of demand (read+write) hits (Count)
system.cpu.icache.demandHits::total           4640644                       # number of demand (read+write) hits (Count)
system.cpu.icache.overallHits::cpu.inst       4640644                       # number of overall hits (Count)
system.cpu.icache.overallHits::total          4640644                       # number of overall hits (Count)
system.cpu.icache.demandMisses::cpu.inst         1430                       # number of demand (read+write) misses (Count)
system.cpu.icache.demandMisses::total            1430                       # number of demand (read+write) misses (Count)
system.cpu.icache.overallMisses::cpu.inst         1430                       # number of overall misses (Count)
system.cpu.icache.overallMisses::total           1430                       # number of overall misses (Count)
system.cpu.icache.demandMissLatency::cpu.inst     65236000                       # number of demand (read+write) miss ticks (Tick)
system.cpu.icache.demandMissLatency::total     65236000                       # number of demand (read+write) miss ticks (Tick)
system.cpu.icache.overallMissLatency::cpu.inst     65236000                       # number of overall miss ticks (Tick)
system.cpu.icache.overallMissLatency::total     65236000                       # number of overall miss ticks (Tick)
system.cpu.icache.demandAccesses::cpu.inst      4642074                       # number of demand (read+write) accesses (Count)
system.cpu.icache.demandAccesses::total       4642074                       # number of demand (read+write) accesses (Count)
system.cpu.icache.overallAccesses::cpu.inst      4642074                       # number of overall (read+write) accesses (Count)
system.cpu.icache.overallAccesses::total      4642074                       # number of overall (read+write) accesses (Count)
system.cpu.icache.demandMissRate::cpu.inst     0.000308                       # miss rate for demand accesses (Ratio)
system.cpu.icache.demandMissRate::total      0.000308                       # miss rate for demand accesses (Ratio)
system.cpu.icache.overallMissRate::cpu.inst     0.000308                       # miss rate for overall accesses (Ratio)
system.cpu.icache.overallMissRate::total     0.000308                       # miss rate for overall accesses (Ratio)
system.cpu.icache.demandAvgMissLatency::cpu.inst 45619.580420                       # average overall miss latency in ticks ((Tick/Count))
system.cpu.icache.demandAvgMissLatency::total 45619.580420                       # average overall miss latency in ticks ((Tick/Count))
system.cpu.icache.overallAvgMissLatency::cpu.inst 45619.580420                       # average overall miss latency ((Tick/Count))
system.cpu.icache.overallAvgMissLatency::total 45619.580420                       # average overall miss latency ((Tick/Count))
system.cpu.icache.blockedCycles::no_mshrs            0                       # number of cycles access was blocked (Cycle)
system.cpu.icache.blockedCycles::no_targets            0                       # number of cycles access was blocked (Cycle)
system.cpu.icache.blockedCauses::no_mshrs            0                       # number of times access was blocked (Count)
system.cpu.icache.blockedCauses::no_targets            0                       # number of times access was blocked (Count)
system.cpu.icache.avgBlocked::no_mshrs            nan                       # average number of cycles each access was blocked ((Cycle/Count))
system.cpu.icache.avgBlocked::no_targets          nan                       # average number of cycles each access was blocked ((Cycle/Count))
system.cpu.icache.demandMshrHits::cpu.inst          125                       # number of demand (read+write) MSHR hits (Count)
system.cpu.icache.demandMshrHits::total           125                       # number of demand (read+write) MSHR hits (Count)
system.cpu.icache.overallMshrHits::cpu.inst          125                       # number of overall MSHR hits (Count)
system.cpu.icache.overallMshrHits::total          125                       # number of overall MSHR hits (Count)
system.cpu.icache.demandMshrMisses::cpu.inst         1305                       # number of demand (read+write) MSHR misses (Count)
system.cpu.icache.demandMshrMisses::total         1305                       # number of demand (read+write) MSHR misses (Count)
system.cpu.icache.overallMshrMisses::cpu.inst         1305                       # number of overall MSHR misses (Count)
system.cpu.icache.overallMshrMisses::total         1305                       # number of overall MSHR misses (Count)
system.cpu.icache.demandMshrMissLatency::cpu.inst     57710000                       # number of demand (read+write) MSHR miss ticks (Tick)
system.cpu.icache.demandMshrMissLatency::total     57710000                       # number of demand (read+write) MSHR miss ticks (Tick)
system.cpu.icache.overallMshrMissLatency::cpu.inst     57710000                       # number of overall MSHR miss ticks (Tick)
system.cpu.icache.overallMshrMissLatency::total     57710000                       # number of overall MSHR miss ticks (Tick)
system.cpu.icache.demandMshrMissRate::cpu.inst     0.000281                       # mshr miss ratio for demand accesses (Ratio)
system.cpu.icache.demandMshrMissRate::total     0.000281                       # mshr miss ratio for demand accesses (Ratio)
system.cpu.icache.overallMshrMissRate::cpu.inst     0.000281                       # mshr miss ratio for overall accesses (Ratio)
system.cpu.icache.overallMshrMissRate::total     0.000281                       # mshr miss ratio for overall accesses (Ratio)
system.cpu.icache.demandAvgMshrMissLatency::cpu.inst 44222.222222                       # average overall mshr miss latency ((Tick/Count))
system.cpu.icache.demandAvgMshrMissLatency::total 44222.222222                       # average overall mshr miss latency ((Tick/Count))
system.cpu.icache.overallAvgMshrMissLatency::cpu.inst 44222.222222                       # average overall mshr miss latency ((Tick/Count))
system.cpu.icache.overallAvgMshrMissLatency::total 44222.222222                       # average overall mshr miss latency ((Tick/Count))
system.cpu.icache.replacements                   1306                       # number of replacements (Count)
system.cpu.icache.ReadReq.hits::cpu.inst      4640644                       # number of ReadReq hits (Count)
system.cpu.icache.ReadReq.hits::total         4640644                       # number of ReadReq hits (Count)
system.cpu.icache.ReadReq.misses::cpu.inst         1430                       # number of ReadReq misses (Count)
system.cpu.icache.ReadReq.misses::total          1430                       # number of ReadReq misses (Count)
system.cpu.icache.ReadReq.missLatency::cpu.inst     65236000                       # number of ReadReq miss ticks (Tick)
system.cpu.icache.ReadReq.missLatency::total     65236000                       # number of ReadReq miss ticks (Tick)
system.cpu.icache.ReadReq.accesses::cpu.inst      4642074                       # number of ReadReq accesses(hits+misses) (Count)
system.cpu.icache.ReadReq.accesses::total      4642074                       # number of ReadReq accesses(hits+misses) (Count)
system.cpu.icache.ReadReq.missRate::cpu.inst     0.000308                       # miss rate for ReadReq accesses (Ratio)
system.cpu.icache.ReadReq.missRate::total     0.000308                       # miss rate for ReadReq accesses (Ratio)
system.cpu.icache.ReadReq.avgMissLatency::cpu.inst 45619.580420                       # average ReadReq miss latency ((Tick/Count))
system.cpu.icache.ReadReq.avgMissLatency::total 45619.580420                       # average ReadReq miss latency ((Tick/Count))
system.cpu.icache.ReadReq.mshrHits::cpu.inst          125                       # number of ReadReq MSHR hits (Count)
system.cpu.icache.ReadReq.mshrHits::total          125                       # number of ReadReq MSHR hits (Count)
system.cpu.icache.ReadReq.mshrMisses::cpu.inst         1305                       # number of ReadReq MSHR misses (Count)
system.cpu.icache.ReadReq.mshrMisses::total         1305                       # number of ReadReq MSHR misses (Count)
system.cpu.icache.ReadReq.mshrMissLatency::cpu.inst     57710000                       # number of ReadReq MSHR miss ticks (Tick)
system.cpu.icache.ReadReq.mshrMissLatency::total     57710000                       # number of ReadReq MSHR miss ticks (Tick)
system.cpu.icache.ReadReq.mshrMissRate::cpu.inst     0.000281                       # mshr miss rate for ReadReq accesses (Ratio)
system.cpu.icache.ReadReq.mshrMissRate::total     0.000281                       # mshr miss rate for ReadReq accesses (Ratio)
system.cpu.icache.ReadReq.avgMshrMissLatency::cpu.inst 44222.222222                       # average ReadReq mshr miss latency ((Tick/Count))
system.cpu.icache.ReadReq.avgMshrMissLatency::total 44222.222222                       # average ReadReq mshr miss latency ((Tick/Count))
system.cpu.icache.power_state.pwrStateResidencyTicks::UNDEFINED  14173255500                       # Cumulative time (in ticks) in various power states (Tick)
system.cpu.icache.tags.tagsInUse                   64                       # Average ticks per tags in use ((Tick/Count))
system.cpu.icache.tags.totalRefs              4340690                       # Total number of references to valid blocks. (Count)
system.cpu.icache.tags.sampledRefs               1306                       # Sample count of references to valid blocks. (Count)
system.cpu.icache.tags.avgRefs            3323.652374                       # Average number of references to valid blocks. ((Count/Count))
system.cpu.icache.tags.warmupTick             7412500                       # The tick when the warmup percentage was hit. (Tick)
system.cpu.icache.tags.occupancies::cpu.inst           64                       # Average occupied blocks per tick, per requestor ((Count/Tick))
system.cpu.icache.tags.avgOccs::cpu.inst            1                       # Average percentage of cache occupancy ((Ratio/Tick))
system.cpu.icache.tags.avgOccs::total               1                       # Average percentage of cache occupancy ((Ratio/Tick))
system.cpu.icache.tags.occupanciesTaskId::1024           64                       # Occupied blocks per task id (Count)
system.cpu.icache.tags.ageTaskId_1024::0           43                       # Occupied blocks per task id, per block age (Count)
system.cpu.icache.tags.ageTaskId_1024::4           21                       # Occupied blocks per task id, per block age (Count)
system.cpu.icache.tags.ratioOccsTaskId::1024            1                       # Ratio of occupied blocks and all blocks, per task id (Ratio)
system.cpu.icache.tags.tagAccesses            9285454                       # Number of tag accesses (Count)
system.cpu.icache.tags.dataAccesses           9285454                       # Number of data accesses (Count)
system.cpu.icache.tags.power_state.pwrStateResidencyTicks::UNDEFINED  14173255500                       # Cumulative time (in ticks) in various power states (Tick)
system.cpu.iew.idleCycles                           0                       # Number of cycles IEW is idle (Cycle)
system.cpu.iew.squashCycles                    538398                       # Number of cycles IEW is squashing (Cycle)
system.cpu.iew.blockCycles                    1125738                       # Number of cycles IEW is blocking (Cycle)
system.cpu.iew.unblockCycles                       15                       # Number of cycles IEW is unblocking (Cycle)
system.cpu.iew.dispatchedInsts               50106053                       # Number of instructions dispatched to IQ (Count)
system.cpu.iew.dispSquashedInsts                44541                       # Number of squashed instructions skipped by dispatch (Count)
system.cpu.iew.dispLoadInsts                 15842361                       # Number of dispatched load instructions (Count)
system.cpu.iew.dispStoreInsts                 3537472                       # Number of dispatched store instructions (Count)
system.cpu.iew.dispNonSpecInsts                     1                       # Number of dispatched non-speculative instructions (Count)
system.cpu.iew.iqFullEvents                         0                       # Number of times the IQ has become full, causing a stall (Count)
system.cpu.iew.lsqFullEvents                        0                       # Number of times the LSQ has become full, causing a stall (Count)
system.cpu.iew.memOrderViolationEvents            477                       # Number of memory order violations (Count)
system.cpu.iew.predictedTakenIncorrect         304274                       # Number of branches that were predicted taken incorrectly (Count)
system.cpu.iew.predictedNotTakenIncorrect       258011                       # Number of branches that were predicted not taken incorrectly (Count)
system.cpu.iew.branchMispredicts               562285                       # Number of branch mispredicts detected at execute (Count)
system.cpu.iew.instsToCommit                 46474925                       # Cumulative count of insts sent to commit (Count)
system.cpu.iew.writebackCount                46353964                       # Cumulative count of insts written-back (Count)
system.cpu.iew.producerInst                  37194462                       # Number of instructions producing a value (Count)
system.cpu.iew.consumerInst                  44403942                       # Number of instructions consuming a value (Count)
system.cpu.iew.wbRate                        1.766975                       # Insts written-back per cycle ((Count/Cycle))
system.cpu.iew.wbFanout                      0.837639                       # Average fanout of values written-back ((Count/Count))
system.cpu.interrupts.clk_domain.clock           8000                       # Clock period in ticks (Tick)
system.cpu.lsq0.forwLoads                     4155178                       # Number of loads that had data forwarded from stores (Count)
system.cpu.lsq0.squashedLoads                 3883472                       # Number of loads squashed (Count)
system.cpu.lsq0.ignoredResponses                22053                       # Number of memory responses ignored because the instruction is squashed (Count)
system.cpu.lsq0.memOrderViolation                 477                       # Number of memory ordering violations (Count)
system.cpu.lsq0.squashedStores                 638616                       # Number of stores squashed (Count)
system.cpu.lsq0.rescheduledLoads                    0                       # Number of loads that were rescheduled (Count)
system.cpu.lsq0.blockedByCache                     53                       # Number of times an access to memory failed due to the cache being blocked (Count)
system.cpu.lsq0.loadToUse::samples           11958887                       # Distribution of cycle latency between the first time a load is issued and its completion (Unspecified)
system.cpu.lsq0.loadToUse::mean              2.966217                       # Distribution of cycle latency between the first time a load is issued and its completion (Unspecified)
system.cpu.lsq0.loadToUse::stdev             1.426041                       # Distribution of cycle latency between the first time a load is issued and its completion (Unspecified)
system.cpu.lsq0.loadToUse::0-9               11915753     99.64%     99.64% # Distribution of cycle latency between the first time a load is issued and its completion (Unspecified)
system.cpu.lsq0.loadToUse::10-19                 9500      0.08%     99.72% # Distribution of cycle latency between the first time a load is issued and its completion (Unspecified)
system.cpu.lsq0.loadToUse::20-29                33527      0.28%    100.00% # Distribution of cycle latency between the first time a load is issued and its completion (Unspecified)
system.cpu.lsq0.loadToUse::30-39                   73      0.00%    100.00% # Distribution of cycle latency between the first time a load is issued and its completion (Unspecified)
system.cpu.lsq0.loadToUse::40-49                   12      0.00%    100.00% # Distribution of cycle latency between the first time a load is issued and its completion (Unspecified)
system.cpu.lsq0.loadToUse::70-79                   14      0.00%    100.00% # Distribution of cycle latency between the first time a load is issued and its completion (Unspecified)
system.cpu.lsq0.loadToUse::80-89                    3      0.00%    100.00% # Distribution of cycle latency between the first time a load is issued and its completion (Unspecified)
system.cpu.lsq0.loadToUse::110-119                  1      0.00%    100.00% # Distribution of cycle latency between the first time a load is issued and its completion (Unspecified)
system.cpu.lsq0.loadToUse::150-159                  1      0.00%    100.00% # Distribution of cycle latency between the first time a load is issued and its completion (Unspecified)
system.cpu.lsq0.loadToUse::160-169                  3      0.00%    100.00% # Distribution of cycle latency between the first time a load is issued and its completion (Unspecified)
system.cpu.lsq0.loadToUse::min_value                2                       # Distribution of cycle latency between the first time a load is issued and its completion (Unspecified)
system.cpu.lsq0.loadToUse::max_value              162                       # Distribution of cycle latency between the first time a load is issued and its completion (Unspecified)
system.cpu.lsq0.loadToUse::total             11958887                       # Distribution of cycle latency between the first time a load is issued and its completion (Unspecified)
system.cpu.mmu.dtb.rdAccesses                15025421                       # TLB accesses on read requests (Count)
system.cpu.mmu.dtb.wrAccesses                 3244211                       # TLB accesses on write requests (Count)
system.cpu.mmu.dtb.rdMisses                        16                       # TLB misses on read requests (Count)
system.cpu.mmu.dtb.wrMisses                         0                       # TLB misses on write requests (Count)
system.cpu.mmu.dtb.walker.power_state.pwrStateResidencyTicks::UNDEFINED  14173255500                       # Cumulative time (in ticks) in various power states (Tick)
system.cpu.mmu.itb.rdAccesses                       0                       # TLB accesses on read requests (Count)
system.cpu.mmu.itb.wrAccesses                 4642076                       # TLB accesses on write requests (Count)
system.cpu.mmu.itb.rdMisses                         0                       # TLB misses on read requests (Count)
system.cpu.mmu.itb.wrMisses                         2                       # TLB misses on write requests (Count)
system.cpu.mmu.itb.walker.power_state.pwrStateResidencyTicks::UNDEFINED  14173255500                       # Cumulative time (in ticks) in various power states (Tick)
system.cpu.power_state.pwrStateResidencyTicks::ON  14173255500                       # Cumulative time (in ticks) in various power states (Tick)
system.cpu.rename.squashCycles                 538398                       # Number of cycles rename is squashing (Cycle)
system.cpu.rename.idleCycles                  4873134                       # Number of cycles rename is idle (Cycle)
system.cpu.rename.blockCycles                 6585307                       # Number of cycles rename is blocking (Cycle)
system.cpu.rename.serializeStallCycles              0                       # count of cycles rename stalled for serializing inst (Cycle)
system.cpu.rename.runCycles                   6500027                       # Number of cycles rename is running (Cycle)
system.cpu.rename.unblockCycles               7667514                       # Number of cycles rename is unblocking (Cycle)
system.cpu.rename.renamedInsts               51955671                       # Number of instructions processed by rename (Count)
system.cpu.rename.ROBFullEvents               6141869                       # Number of times rename has blocked due to ROB full (Count)
system.cpu.rename.IQFullEvents                   8601                       # Number of times rename has blocked due to IQ full (Count)
system.cpu.rename.SQFullEvents                   3601                       # Number of times rename has blocked due to SQ full (Count)
system.cpu.rename.renamedOperands            88266593                       # Number of destination operands rename has renamed (Count)
system.cpu.rename.lookups                   172963471                       # Number of register rename lookups that rename has made (Count)
system.cpu.rename.intLookups                 64462923                       # Number of integer rename lookups (Count)
system.cpu.rename.fpLookups                      1234                       # Number of floating rename lookups (Count)
system.cpu.rename.committedMaps              66331070                       # Number of HB maps that are committed (Count)
system.cpu.rename.undoneMaps                 21935523                       # Number of HB maps that are undone due to squashing (Count)
system.cpu.rename.serializing                       0                       # count of serializing insts renamed (Count)
system.cpu.rename.tempSerializing                   0                       # count of temporary serializing insts renamed (Count)
system.cpu.rename.skidInsts                  21036679                       # count of insts added to the skid buffer (Count)
system.cpu.rob.reads                         72355438                       # The number of ROB reads (Count)
system.cpu.rob.writes                       101878994                       # The number of ROB writes (Count)
system.cpu.thread_0.numInsts                 25467459                       # Number of Instructions committed (Count)
system.cpu.thread_0.numOps                   39195877                       # Number of Ops committed (Count)
system.cpu.thread_0.numMemRefs                      0                       # Number of Memory References (Count)
system.cpu.workload.numSyscalls                    15                       # Number of system calls (Count)
system.l2bus.transDist::ReadResp                24160                       # Transaction distribution (Count)
system.l2bus.transDist::WritebackDirty          30510                       # Transaction distribution (Count)
system.l2bus.transDist::CleanEvict               2345                       # Transaction distribution (Count)
system.l2bus.transDist::ReadExReq                6789                       # Transaction distribution (Count)
system.l2bus.transDist::ReadExResp               6789                       # Transaction distribution (Count)
[...]
system.mem_ctrls.dram.numReads::cpu.inst          727                       # Number of read requests responded to by this memory (Count)
system.mem_ctrls.dram.numReads::cpu.data         1268                       # Number of read requests responded to by this memory (Count)
system.mem_ctrls.dram.numReads::total            1995                       # Number of read requests responded to by this memory (Count)
system.mem_ctrls.dram.numWrites::writebacks         1220                       # Number of write requests responded to by this memory (Count)
system.mem_ctrls.dram.numWrites::total           1220                       # Number of write requests responded to by this memory (Count)
system.mem_ctrls.dram.bwRead::cpu.inst        3545830                       # Total read bandwidth from this memory ((Byte/Second))
system.mem_ctrls.dram.bwRead::cpu.data        6184474                       # Total read bandwidth from this memory ((Byte/Second))
system.mem_ctrls.dram.bwRead::total           9730303                       # Total read bandwidth from this memory ((Byte/Second))
system.mem_ctrls.dram.bwInstRead::cpu.inst      3545830                       # Instruction read bandwidth from this memory ((Byte/Second))
system.mem_ctrls.dram.bwInstRead::total       3545830                       # Instruction read bandwidth from this memory ((Byte/Second))
system.mem_ctrls.dram.bwWrite::writebacks      5950361                       # Write bandwidth from this memory ((Byte/Second))
system.mem_ctrls.dram.bwWrite::total          5950361                       # Write bandwidth from this memory ((Byte/Second))
system.mem_ctrls.dram.bwTotal::writebacks      5950361                       # Total bandwidth to/from this memory ((Byte/Second))
system.mem_ctrls.dram.bwTotal::cpu.inst       3545830                       # Total bandwidth to/from this memory ((Byte/Second))
system.mem_ctrls.dram.bwTotal::cpu.data       6184474                       # Total bandwidth to/from this memory ((Byte/Second))
system.mem_ctrls.dram.bwTotal::total         15680664                       # Total bandwidth to/from this memory ((Byte/Second))
system.mem_ctrls.dram.readBursts                 1351                       # Number of DRAM read bursts (Count)
system.mem_ctrls.dram.writeBursts                1212                       # Number of DRAM write bursts (Count)
system.mem_ctrls.dram.perBankRdBursts::0          166                       # Per bank write bursts (Count)
system.mem_ctrls.dram.perBankRdBursts::1           10                       # Per bank write bursts (Count)
system.mem_ctrls.dram.perBankRdBursts::2           17                       # Per bank write bursts (Count)
system.mem_ctrls.dram.perBankRdBursts::3            8                       # Per bank write bursts (Count)
system.mem_ctrls.dram.perBankRdBursts::4            1                       # Per bank write bursts (Count)
system.mem_ctrls.dram.perBankRdBursts::5           95                       # Per bank write bursts (Count)
system.mem_ctrls.dram.perBankRdBursts::6          107                       # Per bank write bursts (Count)
system.mem_ctrls.dram.perBankRdBursts::7          146                       # Per bank write bursts (Count)
system.mem_ctrls.dram.perBankRdBursts::8          267                       # Per bank write bursts (Count)
system.mem_ctrls.dram.perBankRdBursts::9          269                       # Per bank write bursts (Count)
system.mem_ctrls.dram.perBankRdBursts::10          138                       # Per bank write bursts (Count)
system.mem_ctrls.dram.perBankRdBursts::11           46                       # Per bank write bursts (Count)
system.mem_ctrls.dram.perBankRdBursts::12           27                       # Per bank write bursts (Count)
system.mem_ctrls.dram.perBankRdBursts::13            3                       # Per bank write bursts (Count)
system.mem_ctrls.dram.perBankRdBursts::14            3                       # Per bank write bursts (Count)
system.mem_ctrls.dram.perBankRdBursts::15           48                       # Per bank write bursts (Count)
system.mem_ctrls.dram.perBankWrBursts::0           48                       # Per bank write bursts (Count)
system.mem_ctrls.dram.perBankWrBursts::1            3                       # Per bank write bursts (Count)
system.mem_ctrls.dram.perBankWrBursts::2            0                       # Per bank write bursts (Count)
system.mem_ctrls.dram.perBankWrBursts::3            0                       # Per bank write bursts (Count)
system.mem_ctrls.dram.perBankWrBursts::4            0                       # Per bank write bursts (Count)
system.mem_ctrls.dram.perBankWrBursts::5            0                       # Per bank write bursts (Count)
system.mem_ctrls.dram.perBankWrBursts::6            0                       # Per bank write bursts (Count)
system.mem_ctrls.dram.perBankWrBursts::7            3                       # Per bank write bursts (Count)
system.mem_ctrls.dram.perBankWrBursts::8          245                       # Per bank write bursts (Count)
system.mem_ctrls.dram.perBankWrBursts::9          504                       # Per bank write bursts (Count)
system.mem_ctrls.dram.perBankWrBursts::10          404                       # Per bank write bursts (Count)
system.mem_ctrls.dram.perBankWrBursts::11            2                       # Per bank write bursts (Count)
system.mem_ctrls.dram.perBankWrBursts::12            0                       # Per bank write bursts (Count)
system.mem_ctrls.dram.perBankWrBursts::13            0                       # Per bank write bursts (Count)
system.mem_ctrls.dram.perBankWrBursts::14            0                       # Per bank write bursts (Count)
system.mem_ctrls.dram.perBankWrBursts::15            3                       # Per bank write bursts (Count)
system.mem_ctrls.dram.totQLat                11526250                       # Total ticks spent queuing (Tick)
system.mem_ctrls.dram.totBusLat               6755000                       # Total ticks spent in databus transfers (Tick)
system.mem_ctrls.dram.totMemAccLat           36857500                       # Total ticks spent from burst creation until serviced by the DRAM (Tick)
system.mem_ctrls.dram.avgQLat                 8531.64                       # Average queueing delay per DRAM burst ((Tick/Count))
system.mem_ctrls.dram.avgBusLat               5000.00                       # Average bus latency per DRAM burst ((Tick/Count))
system.mem_ctrls.dram.avgMemAccLat           27281.64                       # Average memory access latency per DRAM burst ((Tick/Count))
system.mem_ctrls.dram.readRowHits                1021                       # Number of row buffer hits during reads (Count)
system.mem_ctrls.dram.writeRowHits               1086                       # Number of row buffer hits during writes (Count)
system.mem_ctrls.dram.readRowHitRate            75.57                       # Row buffer hit rate for reads (Ratio)
system.mem_ctrls.dram.writeRowHitRate           89.60                       # Row buffer hit rate for writes (Ratio)
system.mem_ctrls.dram.bytesPerActivate::samples          453                       # Bytes accessed per row activation (Byte)
system.mem_ctrls.dram.bytesPerActivate::mean   359.982340                       # Bytes accessed per row activation (Byte)
system.mem_ctrls.dram.bytesPerActivate::gmean   241.610701                       # Bytes accessed per row activation (Byte)
system.mem_ctrls.dram.bytesPerActivate::stdev   315.554295                       # Bytes accessed per row activation (Byte)
system.mem_ctrls.dram.bytesPerActivate::0-127           99     21.85%     21.85% # Bytes accessed per row activation (Byte)
system.mem_ctrls.dram.bytesPerActivate::128-255          117     25.83%     47.68% # Bytes accessed per row activation (Byte)
system.mem_ctrls.dram.bytesPerActivate::256-383           69     15.23%     62.91% # Bytes accessed per row activation (Byte)
system.mem_ctrls.dram.bytesPerActivate::384-511           56     12.36%     75.28% # Bytes accessed per row activation (Byte)
system.mem_ctrls.dram.bytesPerActivate::512-639           28      6.18%     81.46% # Bytes accessed per row activation (Byte)
system.mem_ctrls.dram.bytesPerActivate::640-767            9      1.99%     83.44% # Bytes accessed per row activation (Byte)
system.mem_ctrls.dram.bytesPerActivate::768-895           10      2.21%     85.65% # Bytes accessed per row activation (Byte)
system.mem_ctrls.dram.bytesPerActivate::896-1023           10      2.21%     87.86% # Bytes accessed per row activation (Byte)
system.mem_ctrls.dram.bytesPerActivate::1024-1151           55     12.14%    100.00% # Bytes accessed per row activation (Byte)
system.mem_ctrls.dram.bytesPerActivate::total          453                       # Bytes accessed per row activation (Byte)
system.mem_ctrls.dram.bytesRead                 86464                       # Total bytes read (Byte)
system.mem_ctrls.dram.bytesWritten              77568                       # Total bytes written (Byte)
system.mem_ctrls.dram.avgRdBW                6.589293                       # Average DRAM read bandwidth in MiBytes/s ((Byte/Second))
system.mem_ctrls.dram.avgWrBW                5.911342                       # Average DRAM write bandwidth in MiBytes/s ((Byte/Second))
system.mem_ctrls.dram.peakBW                 12800.00                       # Theoretical peak bandwidth in MiByte/s ((Byte/Second))
system.mem_ctrls.dram.busUtil                    0.10                       # Data bus utilization in percentage (Ratio)
system.mem_ctrls.dram.busUtilRead                0.05                       # Data bus utilization in percentage for reads (Ratio)
system.mem_ctrls.dram.busUtilWrite               0.05                       # Data bus utilization in percentage for writes (Ratio)
system.mem_ctrls.dram.pageHitRate               82.21                       # Row buffer hit rate, read and write combined (Ratio)
system.mem_ctrls.dram.power_state.pwrStateResidencyTicks::UNDEFINED  14178391500                       # Cumulative time (in ticks) in various power states (Tick)
system.mem_ctrls.dram.rank0.actEnergy         1213800                       # Energy for activate commands per rank (pJ) (Joule)
system.mem_ctrls.dram.rank0.preEnergy          618585                       # Energy for precharge commands per rank (pJ) (Joule)
system.mem_ctrls.dram.rank0.readEnergy        4269720                       # Energy for read commands per rank (pJ) (Joule)
system.mem_ctrls.dram.rank0.writeEnergy        323640                       # Energy for write commands per rank (pJ) (Joule)
system.mem_ctrls.dram.rank0.refreshEnergy 1035668400.000000                       # Energy for refresh commands per rank (pJ) (Joule)
system.mem_ctrls.dram.rank0.actBackEnergy    323497230                       # Energy for active background per rank (pJ) (Joule)
system.mem_ctrls.dram.rank0.preBackEnergy   4768339680                       # Energy for precharge background per rank (pJ) (Joule)
system.mem_ctrls.dram.rank0.actPowerDownEnergy            0                       # Energy for active power-down per rank (pJ) (Joule)
system.mem_ctrls.dram.rank0.prePowerDownEnergy            0                       # Energy for precharge power-down per rank (pJ) (Joule)
system.mem_ctrls.dram.rank0.selfRefreshEnergy            0                       # Energy for self refresh per rank (pJ) (Joule)
system.mem_ctrls.dram.rank0.totalEnergy    6133931055                       # Total energy per rank (pJ) (Joule)
system.mem_ctrls.dram.rank0.averagePower   467.457786                       # Core power per rank (mW) (Watt)
system.mem_ctrls.dram.rank0.totalIdleTime            0                       # Total Idle time Per DRAM Rank (Tick)
system.mem_ctrls.dram.rank0.pwrStateTime::IDLE  12393449750                       # Time in different power states (Tick)
system.mem_ctrls.dram.rank0.pwrStateTime::REF    438100000                       # Time in different power states (Tick)
system.mem_ctrls.dram.rank0.pwrStateTime::SREF            0                       # Time in different power states (Tick)
system.mem_ctrls.dram.rank0.pwrStateTime::PRE_PDN            0                       # Time in different power states (Tick)
system.mem_ctrls.dram.rank0.pwrStateTime::ACT    295424250                       # Time in different power states (Tick)
system.mem_ctrls.dram.rank0.pwrStateTime::ACT_PDN            0                       # Time in different power states (Tick)
system.mem_ctrls.dram.rank1.actEnergy         2263380                       # Energy for activate commands per rank (pJ) (Joule)
system.mem_ctrls.dram.rank1.preEnergy         1176450                       # Energy for precharge commands per rank (pJ) (Joule)
system.mem_ctrls.dram.rank1.readEnergy        6026160                       # Energy for read commands per rank (pJ) (Joule)
system.mem_ctrls.dram.rank1.writeEnergy       6420600                       # Energy for write commands per rank (pJ) (Joule)
system.mem_ctrls.dram.rank1.refreshEnergy 1035668400.000000                       # Energy for refresh commands per rank (pJ) (Joule)
system.mem_ctrls.dram.rank1.actBackEnergy    502801560                       # Energy for active background per rank (pJ) (Joule)
system.mem_ctrls.dram.rank1.preBackEnergy   4617245280                       # Energy for precharge background per rank (pJ) (Joule)
system.mem_ctrls.dram.rank1.actPowerDownEnergy            0                       # Energy for active power-down per rank (pJ) (Joule)
system.mem_ctrls.dram.rank1.prePowerDownEnergy            0                       # Energy for precharge power-down per rank (pJ) (Joule)
system.mem_ctrls.dram.rank1.selfRefreshEnergy            0                       # Energy for self refresh per rank (pJ) (Joule)
system.mem_ctrls.dram.rank1.totalEnergy    6171601830                       # Total energy per rank (pJ) (Joule)
system.mem_ctrls.dram.rank1.averagePower   470.328620                       # Core power per rank (mW) (Watt)
system.mem_ctrls.dram.rank1.totalIdleTime            0                       # Total Idle time Per DRAM Rank (Tick)
system.mem_ctrls.dram.rank1.pwrStateTime::IDLE  11998922750                       # Time in different power states (Tick)
system.mem_ctrls.dram.rank1.pwrStateTime::REF    438100000                       # Time in different power states (Tick)
system.mem_ctrls.dram.rank1.pwrStateTime::SREF            0                       # Time in different power states (Tick)
system.mem_ctrls.dram.rank1.pwrStateTime::PRE_PDN            0                       # Time in different power states (Tick)
system.mem_ctrls.dram.rank1.pwrStateTime::ACT    689688500                       # Time in different power states (Tick)
system.mem_ctrls.dram.rank1.pwrStateTime::ACT_PDN            0                       # Time in different power states (Tick)
system.mem_ctrls.power_state.pwrStateResidencyTicks::UNDEFINED  14178391500                       # Cumulative time (in ticks) in various power states (Tick)
system.membus.transDist::ReadResp                 773                       # Transaction distribution (Count)
system.membus.transDist::WritebackDirty          1220                       # Transaction distribution (Count)
system.membus.transDist::CleanEvict               774                       # Transaction distribution (Count)
system.membus.transDist::ReadExReq               1222                       # Transaction distribution (Count)
system.membus.transDist::ReadExResp              1222                       # Transaction distribution (Count)
system.membus.transDist::ReadSharedReq            774                       # Transaction distribution (Count)
system.membus.pktCount_system.l2cache.mem_side_port::system.mem_ctrls.port         5985                       # Packet count per connected requestor and responder (Count)
system.membus.pktCount_system.l2cache.mem_side_port::total         5985                       # Packet count per connected requestor and responder (Count)
system.membus.pktCount::total                    5985                       # Packet count per connected requestor and responder (Count)
system.membus.pktSize_system.l2cache.mem_side_port::system.mem_ctrls.port       205760                       # Cumulative packet size per connected requestor and responder (Byte)
system.membus.pktSize_system.l2cache.mem_side_port::total       205760                       # Cumulative packet size per connected requestor and responder (Byte)
system.membus.pktSize::total                   205760                       # Cumulative packet size per connected requestor and responder (Byte)
system.membus.snoops                                0                       # Total snoops (Count)
system.membus.snoopTraffic                          0                       # Total snoop traffic (Byte)
system.membus.snoopFanout::samples               1996                       # Request fanout histogram (Count)
system.membus.snoopFanout::mean                     0                       # Request fanout histogram (Count)
system.membus.snoopFanout::stdev                    0                       # Request fanout histogram (Count)
system.membus.snoopFanout::underflows               0      0.00%      0.00% # Request fanout histogram (Count)
system.membus.snoopFanout::0                     1996    100.00%    100.00% # Request fanout histogram (Count)
system.membus.snoopFanout::1                        0      0.00%    100.00% # Request fanout histogram (Count)
system.membus.snoopFanout::overflows                0      0.00%    100.00% # Request fanout histogram (Count)
system.membus.snoopFanout::min_value                0                       # Request fanout histogram (Count)
system.membus.snoopFanout::max_value                0                       # Request fanout histogram (Count)
system.membus.snoopFanout::total                 1996                       # Request fanout histogram (Count)
system.membus.power_state.pwrStateResidencyTicks::UNDEFINED  14178391500                       # Cumulative time (in ticks) in various power states (Tick)
system.membus.reqLayer2.occupancy             4435000                       # Layer occupancy (ticks) (Tick)
system.membus.reqLayer2.utilization               0.0                       # Layer utilization (Ratio)
system.membus.respLayer1.occupancy            5248250                       # Layer occupancy (ticks) (Tick)
system.membus.respLayer1.utilization              0.0                       # Layer utilization (Ratio)
system.membus.snoop_filter.totRequests           3990                       # Total number of requests made to the snoop filter. (Count)
system.membus.snoop_filter.hitSingleRequests         1994                       # Number of requests hitting in the snoop filter with a single holder of the requested data. (Count)
system.membus.snoop_filter.hitMultiRequests            0                       # Number of requests hitting in the snoop filter with multiple (>1) holders of the requested data. (Count)
system.membus.snoop_filter.totSnoops                0                       # Total number of snoops made to the snoop filter. (Count)
system.membus.snoop_filter.hitSingleSnoops            0                       # Number of snoops hitting in the snoop filter with a single holder of the requested data. (Count)
system.membus.snoop_filter.hitMultiSnoops            0                       # Number of snoops hitting in the snoop filter with multiple (>1) holders of the requested data. (Count)
system.workload.inst.arm                            0                       # number of arm instructions executed (Count)
system.workload.inst.quiesce                        0                       # number of quiesce instructions executed (Count)

---------- End Simulation Statistics   ----------
