
---------- Begin Simulation Statistics ----------
simSeconds                                   0.010894                       # Number of seconds simulated (Second)
simTicks                                  10894041000                       # Number of ticks simulated (Tick)
finalTick                                 11832211500                       # Number of ticks from beginning of simulation (restored from checkpoints and never reset) (Tick)
simFreq                                  1000000000000                       # The number of ticks per simulated second ((Tick/Second))
hostSeconds                                    121.23                       # Real time elapsed on the host (Second)
hostTickRate                                 89861123                       # The number of ticks simulated per host second (ticks/s) ((Tick/Second))
hostMemory                                     802592                       # Number of bytes of host memory used (Byte)
simInsts                                     27246366                       # Number of instructions simulated (Count)
simOps                                       41958143                       # Number of ops (including micro ops) simulated (Count)
hostInstRate                                   224745                       # Simulator instruction rate (inst/s) ((Count/Second))
hostOpRate                                     346097                       # Simulator op (including micro ops) rate (op/s) ((Count/Second))
system.clk_domain.clock                           500                       # Clock period in ticks (Tick)
system.clk_domain.voltage_domain.voltage            1                       # Voltage in Volts (Volt)
system.cpu.numCycles                         21788082                       # Number of cpu cycles simulated (Cycle)
system.cpu.numWorkItemsStarted                      0                       # Number of work items this cpu started (Count)
system.cpu.numWorkItemsCompleted                    0                       # Number of work items this cpu completed (Count)
system.cpu.instsAdded                        55498643                       # Number of instructions added to the IQ (excludes non-spec) (Count)
system.cpu.nonSpecInstsAdded                        1                       # Number of non-speculative instructions added to the IQ (Count)
system.cpu.instsIssued                       51391628                       # Number of instructions issued (Count)
system.cpu.squashedInstsIssued                   1793                       # Number of squashed instructions issued (Count)
system.cpu.squashedInstsExamined             16302764                       # Number of squashed instructions iterated over during squash; mainly for profiling (Count)
system.cpu.squashedOperandsExamined          24105301                       # Number of squashed operands that are examined and possibly removed from graph (Count)
system.cpu.numIssuedDist::samples            21712520                       # Number of insts issued each cycle (Count)
system.cpu.numIssuedDist::mean               2.366912                       # Number of insts issued each cycle (Count)
system.cpu.numIssuedDist::stdev              1.769730                       # Number of insts issued each cycle (Count)
system.cpu.numIssuedDist::underflows                0      0.00%      0.00% # Number of insts issued each cycle (Count)
system.cpu.numIssuedDist::0                   5175669     23.84%     23.84% # Number of insts issued each cycle (Count)
system.cpu.numIssuedDist::1                   1975104      9.10%     32.93% # Number of insts issued each cycle (Count)
system.cpu.numIssuedDist::2                   4153944     19.13%     52.07% # Number of insts issued each cycle (Count)
system.cpu.numIssuedDist::3                   3860730     17.78%     69.85% # Number of insts issued each cycle (Count)
system.cpu.numIssuedDist::4                   3962865     18.25%     88.10% # Number of insts issued each cycle (Count)
system.cpu.numIssuedDist::5                   1830262      8.43%     96.53% # Number of insts issued each cycle (Count)
system.cpu.numIssuedDist::6                    753946      3.47%    100.00% # Number of insts issued each cycle (Count)
system.cpu.numIssuedDist::overflows                 0      0.00%    100.00% # Number of insts issued each cycle (Count)
system.cpu.numIssuedDist::min_value                 0                       # Number of insts issued each cycle (Count)
system.cpu.numIssuedDist::max_value                 6                       # Number of insts issued each cycle (Count)
system.cpu.numIssuedDist::total              21712520                       # Number of insts issued each cycle (Count)
system.cpu.statFuBusy::No_OpClass                   0      0.00%      0.00% # attempts to use FU when none available (Count)
system.cpu.statFuBusy::IntAlu                       0      0.00%      0.00% # attempts to use FU when none available (Count)
system.cpu.statFuBusy::IntMult                      0      0.00%      0.00% # attempts to use FU when none available (Count)
system.cpu.statFuBusy::IntDiv                       0      0.00%      0.00% # attempts to use FU when none available (Count)
system.cpu.statFuBusy::FloatAdd                     0      0.00%      0.00% # attempts to use FU when none available (Count)
system.cpu.statFuBusy::FloatCmp                     0      0.00%      0.00% # attempts to use FU when none available (Count)
system.cpu.statFuBusy::FloatCvt                     0      0.00%      0.00% # attempts to use FU when none available (Count)
system.cpu.statFuBusy::FloatMult                    0      0.00%      0.00% # attempts to use FU when none available (Count)
system.cpu.statFuBusy::FloatMultAcc                 0      0.00%      0.00% # attempts to use FU when none available (Count)
system.cpu.statFuBusy::FloatDiv                     0      0.00%      0.00% # attempts to use FU when none available (Count)
system.cpu.statFuBusy::FloatMisc                    0      0.00%      0.00% # attempts to use FU when none available (Count)
system.cpu.statFuBusy::FloatSqrt                    0      0.00%      0.00% # attempts to use FU when none available (Count)
system.cpu.statFuBusy::SimdAdd                      0      0.00%      0.00% # attempts to use FU when none available (Count)
system.cpu.statFuBusy::SimdAddAcc                   0      0.00%      0.00% # attempts to use FU when none available (Count)
system.cpu.statFuBusy::SimdAlu                      1      0.00%      0.00% # attempts to use FU when none available (Count)
system.cpu.statFuBusy::SimdCmp                      0      0.00%      0.00% # attempts to use FU when none available (Count)
system.cpu.statFuBusy::SimdCvt                      0      0.00%      0.00% # attempts to use FU when none available (Count)
system.cpu.statFuBusy::SimdMisc                    61      0.07%      0.07% # attempts to use FU when none available (Count)
system.cpu.statFuBusy::SimdMult                     0      0.00%      0.07% # attempts to use FU when none available (Count)
system.cpu.statFuBusy::SimdMultAcc                  0      0.00%      0.07% # attempts to use FU when none available (Count)
system.cpu.statFuBusy::SimdShift                    0      0.00%      0.07% # attempts to use FU when none available (Count)
system.cpu.statFuBusy::SimdShiftAcc                 0      0.00%      0.07% # attempts to use FU when none available (Count)
system.cpu.statFuBusy::SimdDiv                      0      0.00%      0.07% # attempts to use FU when none available (Count)
system.cpu.statFuBusy::SimdSqrt                     0      0.00%      0.07% # attempts to use FU when none available (Count)
system.cpu.statFuBusy::SimdFloatAdd                 0      0.00%      0.07% # attempts to use FU when none available (Count)
system.cpu.statFuBusy::SimdFloatAlu                 0      0.00%      0.07% # attempts to use FU when none available (Count)
system.cpu.statFuBusy::SimdFloatCmp                 0      0.00%      0.07% # attempts to use FU when none available (Count)
system.cpu.statFuBusy::SimdFloatCvt                 0      0.00%      0.07% # attempts to use FU when none available (Count)
system.cpu.statFuBusy::SimdFloatDiv                 0      0.00%      0.07% # attempts to use FU when none available (Count)
system.cpu.statFuBusy::SimdFloatMisc                0      0.00%      0.07% # attempts to use FU when none available (Count)
system.cpu.statFuBusy::SimdFloatMult                0      0.00%      0.07% # attempts to use FU when none available (Count)
system.cpu.statFuBusy::SimdFloatMultAcc             0      0.00%      0.07% # attempts to use FU when none available (Count)
system.cpu.statFuBusy::SimdFloatSqrt                0      0.00%      0.07% # attempts to use FU when none available (Count)
system.cpu.statFuBusy::SimdReduceAdd                0      0.00%      0.07% # attempts to use FU when none available (Count)
system.cpu.statFuBusy::SimdReduceAlu                0      0.00%      0.07% # attempts to use FU when none available (Count)
system.cpu.statFuBusy::SimdReduceCmp                0      0.00%      0.07% # attempts to use FU when none available (Count)
system.cpu.statFuBusy::SimdFloatReduceAdd            0      0.00%      0.07% # attempts to use FU when none available (Count)
system.cpu.statFuBusy::SimdFloatReduceCmp            0      0.00%      0.07% # attempts to use FU when none available (Count)
system.cpu.statFuBusy::SimdAes                      0      0.00%      0.07% # attempts to use FU when none available (Count)
system.cpu.statFuBusy::SimdAesMix                   0      0.00%      0.07% # attempts to use FU when none available (Count)
system.cpu.statFuBusy::SimdSha1Hash                 0      0.00%      0.07% # attempts to use FU when none available (Count)
system.cpu.statFuBusy::SimdSha1Hash2                0      0.00%      0.07% # attempts to use FU when none available (Count)
system.cpu.statFuBusy::SimdSha256Hash               0      0.00%      0.07% # attempts to use FU when none available (Count)
system.cpu.statFuBusy::SimdSha256Hash2              0      0.00%      0.07% # attempts to use FU when none available (Count)
system.cpu.statFuBusy::SimdShaSigma2                0      0.00%      0.07% # attempts to use FU when none available (Count)
system.cpu.statFuBusy::SimdShaSigma3                0      0.00%      0.07% # attempts to use FU when none available (Count)
system.cpu.statFuBusy::SimdPredAlu                  0      0.00%      0.07% # attempts to use FU when none available (Count)
system.cpu.statFuBusy::MemRead                  63941     76.12%     76.19% # attempts to use FU when none available (Count)
system.cpu.statFuBusy::MemWrite                 20002     23.81%    100.00% # attempts to use FU when none available (Count)
system.cpu.statFuBusy::FloatMemRead                 0      0.00%    100.00% # attempts to use FU when none available (Count)
system.cpu.statFuBusy::FloatMemWrite                0      0.00%    100.00% # attempts to use FU when none available (Count)
system.cpu.statFuBusy::IprAccess                    0      0.00%    100.00% # attempts to use FU when none available (Count)
system.cpu.statFuBusy::InstPrefetch                 0      0.00%    100.00% # attempts to use FU when none available (Count)
system.cpu.statIssuedInstType_0::No_OpClass           49      0.00%      0.00% # Number of instructions issued per FU type, per thread (Count)
system.cpu.statIssuedInstType_0::IntAlu      30826707     59.98%     59.98% # Number of instructions issued per FU type, per thread (Count)
system.cpu.statIssuedInstType_0::IntMult       225210      0.44%     60.42% # Number of instructions issued per FU type, per thread (Count)
system.cpu.statIssuedInstType_0::IntDiv           105      0.00%     60.42% # Number of instructions issued per FU type, per thread (Count)
system.cpu.statIssuedInstType_0::FloatAdd           31      0.00%     60.42% # Number of instructions issued per FU type, per thread (Count)
system.cpu.statIssuedInstType_0::FloatCmp            0      0.00%     60.42% # Number of instructions issued per FU type, per thread (Count)
system.cpu.statIssuedInstType_0::FloatCvt            0      0.00%     60.42% # Number of instructions issued per FU type, per thread (Count)
system.cpu.statIssuedInstType_0::FloatMult            0      0.00%     60.42% # Number of instructions issued per FU type, per thread (Count)
system.cpu.statIssuedInstType_0::FloatMultAcc            0      0.00%     60.42% # Number of instructions issued per FU type, per thread (Count)
system.cpu.statIssuedInstType_0::FloatDiv            0      0.00%     60.42% # Number of instructions issued per FU type, per thread (Count)
system.cpu.statIssuedInstType_0::FloatMisc            0      0.00%     60.42% # Number of instructions issued per FU type, per thread (Count)
system.cpu.statIssuedInstType_0::FloatSqrt            0      0.00%     60.42% # Number of instructions issued per FU type, per thread (Count)
system.cpu.statIssuedInstType_0::SimdAdd            0      0.00%     60.42% # Number of instructions issued per FU type, per thread (Count)
system.cpu.statIssuedInstType_0::SimdAddAcc            0      0.00%     60.42% # Number of instructions issued per FU type, per thread (Count)
system.cpu.statIssuedInstType_0::SimdAlu           62      0.00%     60.42% # Number of instructions issued per FU type, per thread (Count)
system.cpu.statIssuedInstType_0::SimdCmp            0      0.00%     60.42% # Number of instructions issued per FU type, per thread (Count)
system.cpu.statIssuedInstType_0::SimdCvt          120      0.00%     60.42% # Number of instructions issued per FU type, per thread (Count)
system.cpu.statIssuedInstType_0::SimdMisc          337      0.00%     60.42% # Number of instructions issued per FU type, per thread (Count)
system.cpu.statIssuedInstType_0::SimdMult            0      0.00%     60.42% # Number of instructions issued per FU type, per thread (Count)
system.cpu.statIssuedInstType_0::SimdMultAcc            0      0.00%     60.42% # Number of instructions issued per FU type, per thread (Count)
system.cpu.statIssuedInstType_0::SimdShift            0      0.00%     60.42% # Number of instructions issued per FU type, per thread (Count)
system.cpu.statIssuedInstType_0::SimdShiftAcc            0      0.00%     60.42% # Number of instructions issued per FU type, per thread (Count)
system.cpu.statIssuedInstType_0::SimdDiv            0      0.00%     60.42% # Number of instructions issued per FU type, per thread (Count)
system.cpu.statIssuedInstType_0::SimdSqrt            0      0.00%     60.42% # Number of instructions issued per FU type, per thread (Count)
system.cpu.statIssuedInstType_0::SimdFloatAdd            0      0.00%     60.42% # Number of instructions issued per FU type, per thread (Count)
system.cpu.statIssuedInstType_0::SimdFloatAlu            0      0.00%     60.42% # Number of instructions issued per FU type, per thread (Count)
system.cpu.statIssuedInstType_0::SimdFloatCmp            0      0.00%     60.42% # Number of instructions issued per FU type, per thread (Count)
system.cpu.statIssuedInstType_0::SimdFloatCvt            0      0.00%     60.42% # Number of instructions issued per FU type, per thread (Count)
system.cpu.statIssuedInstType_0::SimdFloatDiv            0      0.00%     60.42% # Number of instructions issued per FU type, per thread (Count)
system.cpu.statIssuedInstType_0::SimdFloatMisc            0      0.00%     60.42% # Number of instructions issued per FU type, per thread (Count)
system.cpu.statIssuedInstType_0::SimdFloatMult            0      0.00%     60.42% # Number of instructions issued per FU type, per thread (Count)
system.cpu.statIssuedInstType_0::SimdFloatMultAcc            0      0.00%     60.42% # Number of instructions issued per FU type, per thread (Count)
system.cpu.statIssuedInstType_0::SimdFloatSqrt            0      0.00%     60.42% # Number of instructions issued per FU type, per thread (Count)
system.cpu.statIssuedInstType_0::SimdReduceAdd            0      0.00%     60.42% # Number of instructions issued per FU type, per thread (Count)
system.cpu.statIssuedInstType_0::SimdReduceAlu            0      0.00%     60.42% # Number of instructions issued per FU type, per thread (Count)
system.cpu.statIssuedInstType_0::SimdReduceCmp            0      0.00%     60.42% # Number of instructions issued per FU type, per thread (Count)
system.cpu.statIssuedInstType_0::SimdFloatReduceAdd            0      0.00%     60.42% # Number of instructions issued per FU type, per thread (Count)
system.cpu.statIssuedInstType_0::SimdFloatReduceCmp            0      0.00%     60.42% # Number of instructions issued per FU type, per thread (Count)
system.cpu.statIssuedInstType_0::SimdAes            0      0.00%     60.42% # Number of instructions issued per FU type, per thread (Count)
system.cpu.statIssuedInstType_0::SimdAesMix            0      0.00%     60.42% # Number of instructions issued per FU type, per thread (Count)
system.cpu.statIssuedInstType_0::SimdSha1Hash            0      0.00%     60.42% # Number of instructions issued per FU type, per thread (Count)
system.cpu.statIssuedInstType_0::SimdSha1Hash2            0      0.00%     60.42% # Number of instructions issued per FU type, per thread (Count)
system.cpu.statIssuedInstType_0::SimdSha256Hash            0      0.00%     60.42% # Number of instructions issued per FU type, per thread (Count)
system.cpu.statIssuedInstType_0::SimdSha256Hash2            0      0.00%     60.42% # Number of instructions issued per FU type, per thread (Count)
system.cpu.statIssuedInstType_0::SimdShaSigma2            0      0.00%     60.42% # Number of instructions issued per FU type, per thread (Count)
system.cpu.statIssuedInstType_0::SimdShaSigma3            0      0.00%     60.42% # Number of instructions issued per FU type, per thread (Count)
system.cpu.statIssuedInstType_0::SimdPredAlu            0      0.00%     60.42% # Number of instructions issued per FU type, per thread (Count)
system.cpu.statIssuedInstType_0::MemRead     16842197     32.77%     93.20% # Number of instructions issued per FU type, per thread (Count)
system.cpu.statIssuedInstType_0::MemWrite      3496750      6.80%    100.00% # Number of instructions issued per FU type, per thread (Count)
system.cpu.statIssuedInstType_0::FloatMemRead           60      0.00%    100.00% # Number of instructions issued per FU type, per thread (Count)
system.cpu.statIssuedInstType_0::FloatMemWrite            0      0.00%    100.00% # Number of instructions issued per FU type, per thread (Count)
system.cpu.statIssuedInstType_0::IprAccess            0      0.00%    100.00% # Number of instructions issued per FU type, per thread (Count)
system.cpu.statIssuedInstType_0::InstPrefetch            0      0.00%    100.00% # Number of instructions issued per FU type, per thread (Count)
system.cpu.statIssuedInstType_0::total       51391628                       # Number of instructions issued per FU type, per thread (Count)
system.cpu.issueRate                         2.358704                       # Inst issue rate ((Count/Cycle))
system.cpu.fuBusy                               84005                       # FU busy when requested (Count)
system.cpu.fuBusyRate                        0.001635                       # FU busy rate (busy events/executed inst) ((Count/Count))
system.cpu.intInstQueueReads                124580111                       # Number of integer instruction queue reads (Count)
system.cpu.intInstQueueWrites                71801173                       # Number of integer instruction queue writes (Count)
system.cpu.intInstQueueWakeupAccesses        49745498                       # Number of integer instruction queue wakeup accesses (Count)
system.cpu.fpInstQueueReads                      1464                       # Number of floating instruction queue reads (Count)
system.cpu.fpInstQueueWrites                      728                       # Number of floating instruction queue writes (Count)
system.cpu.fpInstQueueWakeupAccesses              701                       # Number of floating instruction queue wakeup accesses (Count)
system.cpu.vecInstQueueReads                        0                       # Number of vector instruction queue reads (Count)
system.cpu.vecInstQueueWrites                       0                       # Number of vector instruction queue writes (Count)
system.cpu.vecInstQueueWakeupAccesses               0                       # Number of vector instruction queue wakeup accesses (Count)
system.cpu.intAluAccesses                    51474821                       # Number of integer alu accesses (Count)
system.cpu.fpAluAccesses                          763                       # Number of floating point alu accesses (Count)
system.cpu.vecAluAccesses                           0                       # Number of vector alu accesses (Count)
system.cpu.numInsts                          50600895                       # Number of executed instructions (Count)
system.cpu.numLoadInsts                      16438487                       # Number of load instructions executed (Count)
system.cpu.numSquashedInsts                    790734                       # Number of squashed instructions skipped in execute (Count)
system.cpu.numSwp                                   0                       # Number of swp insts executed (Count)
system.cpu.numNop                                   0                       # Number of nop insts executed (Count)
system.cpu.numRefs                           19854366                       # Number of memory reference insts executed (Count)
system.cpu.numBranches                        3355719                       # Number of branches executed (Count)
system.cpu.numStoreInsts                      3415879                       # Number of stores executed (Count)
system.cpu.numRate                           2.322412                       # Inst execution rate ((Count/Cycle))
system.cpu.timesIdled                            1072                       # Number of times that the entire CPU went into an idle state and unscheduled itself (Count)
system.cpu.idleCycles                           75562                       # Total number of cycles that the CPU has spent unscheduled due to idling (Cycle)
system.cpu.committedInsts                    25467459                       # Number of Instructions Simulated (Count)
system.cpu.committedOps                      39195877                       # Number of Ops (including micro ops) Simulated (Count)
system.cpu.cpi                               0.855526                       # CPI: Cycles Per Instruction ((Cycle/Count))
system.cpu.totalCpi                          0.855526                       # CPI: Total CPI of All Threads ((Cycle/Count))
system.cpu.ipc                               1.168871                       # IPC: Instructions Per Cycle ((Count/Cycle))
system.cpu.totalIpc                          1.168871                       # IPC: Total IPC of All Threads ((Count/Cycle))
system.cpu.intRegfileReads                   61073734                       # Number of integer regfile reads (Count)
system.cpu.intRegfileWrites                  40936604                       # Number of integer regfile writes (Count)
system.cpu.fpRegfileReads                        1251                       # Number of floating regfile reads (Count)
system.cpu.fpRegfileWrites                        581                       # Number of floating regfile writes (Count)
system.cpu.ccRegfileReads                    12323544                       # number of cc regfile reads (Count)
system.cpu.ccRegfileWrites                   16257764                       # number of cc regfile writes (Count)
system.cpu.miscRegfileReads                  27301534                       # number of misc regfile reads (Count)
system.cpu.MemDepUnit__0.insertedLoads       17703011                       # Number of loads inserted to the mem dependence unit. (Count)
system.cpu.MemDepUnit__0.insertedStores       4029857                       # Number of stores inserted to the mem dependence unit. (Count)
system.cpu.MemDepUnit__0.conflictingLoads      4305869                       # Number of conflicting loads. (Count)
system.cpu.MemDepUnit__0.conflictingStores       681782                       # Number of conflicting stores. (Count)
system.cpu.MemDepUnit__1.insertedLoads              0                       # Number of loads inserted to the mem dependence unit. (Count)
system.cpu.MemDepUnit__1.insertedStores             0                       # Number of stores inserted to the mem dependence unit. (Count)
system.cpu.MemDepUnit__1.conflictingLoads            0                       # Number of conflicting loads. (Count)
system.cpu.MemDepUnit__1.conflictingStores            0                       # Number of conflicting stores. (Count)
system.cpu.MemDepUnit__2.insertedLoads              0                       # Number of loads inserted to the mem dependence unit. (Count)
system.cpu.MemDepUnit__2.insertedStores             0                       # Number of stores inserted to the mem dependence unit. (Count)
system.cpu.MemDepUnit__2.conflictingLoads            0                       # Number of conflicting loads. (Count)
system.cpu.MemDepUnit__2.conflictingStores            0                       # Number of conflicting stores. (Count)
system.cpu.MemDepUnit__3.insertedLoads              0                       # Number of loads inserted to the mem dependence unit. (Count)
system.cpu.MemDepUnit__3.insertedStores             0                       # Number of stores inserted to the mem dependence unit. (Count)
system.cpu.MemDepUnit__3.conflictingLoads            0                       # Number of conflicting loads. (Count)
system.cpu.MemDepUnit__3.conflictingStores            0                       # Number of conflicting stores. (Count)
system.cpu.branchPred.lookups                 4901303                       # Number of BP lookups (Count)
system.cpu.branchPred.condPredicted           3676259                       # Number of conditional branches predicted (Count)
system.cpu.branchPred.condIncorrect            428453                       # Number of conditional branches incorrect (Count)
system.cpu.branchPred.BTBLookups              3318770                       # Number of BTB lookups (Count)
system.cpu.branchPred.BTBHits                 3318730                       # Number of BTB hits (Count)
system.cpu.branchPred.BTBHitRatio            0.999988                       # BTB Hit Ratio (Ratio)
system.cpu.branchPred.RASUsed                  174898                       # Number of times the RAS was used to get a target. (Count)
system.cpu.branchPred.RASIncorrect                305                       # Number of incorrect RAS predictions. (Count)
system.cpu.branchPred.indirectLookups             183                       # Number of indirect predictor lookups. (Count)
system.cpu.branchPred.indirectHits                157                       # Number of indirect target hits. (Count)
system.cpu.branchPred.indirectMisses               26                       # Number of indirect misses. (Count)
system.cpu.branchPred.indirectMispredicted            7                       # Number of mispredicted indirect branches. (Count)
system.cpu.branchPred.loop_predictor.correct      1361917                       # Number of times the loop predictor is the provider and the prediction is correct (Count)
system.cpu.branchPred.loop_predictor.wrong       765189                       # Number of times the loop predictor is the provider and the prediction is wrong (Count)
system.cpu.branchPred.tage.longestMatchProviderCorrect      1547040                       # Number of times TAGE Longest Match is the provider and the prediction is correct (Count)
system.cpu.branchPred.tage.altMatchProviderCorrect        99407                       # Number of times TAGE Alt Match is the provider and the prediction is correct (Count)
system.cpu.branchPred.tage.bimodalAltMatchProviderCorrect         4204                       # Number of times TAGE Alt Match is the bimodal and it is the provider and the prediction is correct (Count)
system.cpu.branchPred.tage.bimodalProviderCorrect        66570                       # Number of times there are no hits on the TAGE tables and the bimodal prediction is correct (Count)
system.cpu.branchPred.tage.longestMatchProviderWrong       340964                       # Number of times TAGE Longest Match is the provider and the prediction is wrong (Count)
system.cpu.branchPred.tage.altMatchProviderWrong        64721                       # Number of times TAGE Alt Match is the provider and the prediction is wrong (Count)
system.cpu.branchPred.tage.bimodalAltMatchProviderWrong         3617                       # Number of times TAGE Alt Match is the bimodal and it is the provider and the prediction is wrong (Count)
system.cpu.branchPred.tage.bimodalProviderWrong          583                       # Number of times there are no hits on the TAGE tables and the bimodal prediction is wrong (Count)
system.cpu.branchPred.tage.altMatchProviderWouldHaveHit       112378                       # Number of times TAGE Longest Match is the provider, the prediction is wrong and Alt Match prediction was correct (Count)
system.cpu.branchPred.tage.longestMatchProviderWouldHaveHit        39107                       # Number of times TAGE Alt Match is the provider, the prediction is wrong and Longest Match prediction was correct (Count)
system.cpu.branchPred.tage.longestMatchProvider::0            0                       # TAGE provider for longest match (Count)
system.cpu.branchPred.tage.longestMatchProvider::1        23869                       # TAGE provider for longest match (Count)
system.cpu.branchPred.tage.longestMatchProvider::2       168358                       # TAGE provider for longest match (Count)
system.cpu.branchPred.tage.longestMatchProvider::3       588647                       # TAGE provider for longest match (Count)
system.cpu.branchPred.tage.longestMatchProvider::4       802961                       # TAGE provider for longest match (Count)
system.cpu.branchPred.tage.longestMatchProvider::5       289061                       # TAGE provider for longest match (Count)
system.cpu.branchPred.tage.longestMatchProvider::6        66460                       # TAGE provider for longest match (Count)
system.cpu.branchPred.tage.longestMatchProvider::7        12430                       # TAGE provider for longest match (Count)
system.cpu.branchPred.tage.longestMatchProvider::8        17956                       # TAGE provider for longest match (Count)
system.cpu.branchPred.tage.longestMatchProvider::9        10487                       # TAGE provider for longest match (Count)
system.cpu.branchPred.tage.longestMatchProvider::10        10904                       # TAGE provider for longest match (Count)
system.cpu.branchPred.tage.longestMatchProvider::11         4366                       # TAGE provider for longest match (Count)
system.cpu.branchPred.tage.longestMatchProvider::12        56633                       # TAGE provider for longest match (Count)
system.cpu.branchPred.tage.altMatchProvider::0       278786                       # TAGE provider for alt match (Count)
system.cpu.branchPred.tage.altMatchProvider::1        94839                       # TAGE provider for alt match (Count)
system.cpu.branchPred.tage.altMatchProvider::2       531083                       # TAGE provider for alt match (Count)
system.cpu.branchPred.tage.altMatchProvider::3       852074                       # TAGE provider for alt match (Count)
system.cpu.branchPred.tage.altMatchProvider::4       198969                       # TAGE provider for alt match (Count)
system.cpu.branchPred.tage.altMatchProvider::5        45455                       # TAGE provider for alt match (Count)
system.cpu.branchPred.tage.altMatchProvider::6         9706                       # TAGE provider for alt match (Count)
system.cpu.branchPred.tage.altMatchProvider::7          566                       # TAGE provider for alt match (Count)
system.cpu.branchPred.tage.altMatchProvider::8         1265                       # TAGE provider for alt match (Count)
system.cpu.branchPred.tage.altMatchProvider::9         3039                       # TAGE provider for alt match (Count)
system.cpu.branchPred.tage.altMatchProvider::10        36325                       # TAGE provider for alt match (Count)
system.cpu.branchPred.tage.altMatchProvider::11           25                       # TAGE provider for alt match (Count)
system.cpu.branchPred.tage.altMatchProvider::12            0                       # TAGE provider for alt match (Count)
system.cpu.commit.commitSquashedInsts        16302304                       # The number of squashed insts skipped by commit (Count)
system.cpu.commit.commitNonSpecStalls               1                       # The number of times commit has been forced to stall to communicate backwards (Count)
system.cpu.commit.branchMispredicts            428404                       # The number of times a branch was mispredicted (Count)
system.cpu.commit.numCommittedDist::samples     19428767                       # Number of insts commited each cycle (Count)
system.cpu.commit.numCommittedDist::mean     2.017415                       # Number of insts commited each cycle (Count)
system.cpu.commit.numCommittedDist::stdev     2.156969                       # Number of insts commited each cycle (Count)
system.cpu.commit.numCommittedDist::underflows            0      0.00%      0.00% # Number of insts commited each cycle (Count)
system.cpu.commit.numCommittedDist::0         6792453     34.96%     34.96% # Number of insts commited each cycle (Count)
system.cpu.commit.numCommittedDist::1         3702900     19.06%     54.02% # Number of insts commited each cycle (Count)
system.cpu.commit.numCommittedDist::2         2395035     12.33%     66.35% # Number of insts commited each cycle (Count)
system.cpu.commit.numCommittedDist::3         2133060     10.98%     77.33% # Number of insts commited each cycle (Count)
system.cpu.commit.numCommittedDist::4          902495      4.65%     81.97% # Number of insts commited each cycle (Count)
system.cpu.commit.numCommittedDist::5          323197      1.66%     83.63% # Number of insts commited each cycle (Count)
system.cpu.commit.numCommittedDist::6         3179627     16.37%    100.00% # Number of insts commited each cycle (Count)
system.cpu.commit.numCommittedDist::overflows            0      0.00%    100.00% # Number of insts commited each cycle (Count)
system.cpu.commit.numCommittedDist::min_value            0                       # Number of insts commited each cycle (Count)
system.cpu.commit.numCommittedDist::max_value            6                       # Number of insts commited each cycle (Count)
system.cpu.commit.numCommittedDist::total     19428767                       # Number of insts commited each cycle (Count)
system.cpu.commit.instsCommitted             25467459                       # Number of instructions committed (Count)
system.cpu.commit.opsCommitted               39195877                       # Number of ops (including micro ops) committed (Count)
system.cpu.commit.memRefs                    14857744                       # Number of memory references committed (Count)
system.cpu.commit.loads                      11958887                       # Number of loads committed (Count)
system.cpu.commit.amos                              0                       # Number of atomic instructions committed (Count)
system.cpu.commit.membars                           0                       # Number of memory barriers committed (Count)
system.cpu.commit.branches                    2923534                       # Number of branches committed (Count)
system.cpu.commit.vectorInstructions                0                       # Number of committed Vector instructions. (Count)
system.cpu.commit.floating                        690                       # Number of committed floating point instructions. (Count)
system.cpu.commit.integer                    39195306                       # Number of committed integer instructions. (Count)
system.cpu.commit.functionCalls                141796                       # Number of function calls committed. (Count)
system.cpu.commit.committedInstType_0::No_OpClass           45      0.00%      0.00% # Class of committed instruction (Count)
system.cpu.commit.committedInstType_0::IntAlu     24112368     61.52%     61.52% # Class of committed instruction (Count)
system.cpu.commit.committedInstType_0::IntMult       225075      0.57%     62.09% # Class of committed instruction (Count)
system.cpu.commit.committedInstType_0::IntDiv          105      0.00%     62.09% # Class of committed instruction (Count)
system.cpu.commit.committedInstType_0::FloatAdd           30      0.00%     62.09% # Class of committed instruction (Count)
system.cpu.commit.committedInstType_0::FloatCmp            0      0.00%     62.09% # Class of committed instruction (Count)
system.cpu.commit.committedInstType_0::FloatCvt            0      0.00%     62.09% # Class of committed instruction (Count)
system.cpu.commit.committedInstType_0::FloatMult            0      0.00%     62.09% # Class of committed instruction (Count)
system.cpu.commit.committedInstType_0::FloatMultAcc            0      0.00%     62.09% # Class of committed instruction (Count)
system.cpu.commit.committedInstType_0::FloatDiv            0      0.00%     62.09% # Class of committed instruction (Count)
system.cpu.commit.committedInstType_0::FloatMisc            0      0.00%     62.09% # Class of committed instruction (Count)
system.cpu.commit.committedInstType_0::FloatSqrt            0      0.00%     62.09% # Class of committed instruction (Count)
system.cpu.commit.committedInstType_0::SimdAdd            0      0.00%     62.09% # Class of committed instruction (Count)
system.cpu.commit.committedInstType_0::SimdAddAcc            0      0.00%     62.09% # Class of committed instruction (Count)
system.cpu.commit.committedInstType_0::SimdAlu           60      0.00%     62.09% # Class of committed instruction (Count)
system.cpu.commit.committedInstType_0::SimdCmp            0      0.00%     62.09% # Class of committed instruction (Count)
system.cpu.commit.committedInstType_0::SimdCvt          120      0.00%     62.09% # Class of committed instruction (Count)
system.cpu.commit.committedInstType_0::SimdMisc          330      0.00%     62.09% # Class of committed instruction (Count)
system.cpu.commit.committedInstType_0::SimdMult            0      0.00%     62.09% # Class of committed instruction (Count)
system.cpu.commit.committedInstType_0::SimdMultAcc            0      0.00%     62.09% # Class of committed instruction (Count)
system.cpu.commit.committedInstType_0::SimdShift            0      0.00%     62.09% # Class of committed instruction (Count)
system.cpu.commit.committedInstType_0::SimdShiftAcc            0      0.00%     62.09% # Class of committed instruction (Count)
system.cpu.commit.committedInstType_0::SimdDiv            0      0.00%     62.09% # Class of committed instruction (Count)
system.cpu.commit.committedInstType_0::SimdSqrt            0      0.00%     62.09% # Class of committed instruction (Count)
system.cpu.commit.committedInstType_0::SimdFloatAdd            0      0.00%     62.09% # Class of committed instruction (Count)
system.cpu.commit.committedInstType_0::SimdFloatAlu            0      0.00%     62.09% # Class of committed instruction (Count)
system.cpu.commit.committedInstType_0::SimdFloatCmp            0      0.00%     62.09% # Class of committed instruction (Count)
system.cpu.commit.committedInstType_0::SimdFloatCvt            0      0.00%     62.09% # Class of committed instruction (Count)
system.cpu.commit.committedInstType_0::SimdFloatDiv            0      0.00%     62.09% # Class of committed instruction (Count)
system.cpu.commit.committedInstType_0::SimdFloatMisc            0      0.00%     62.09% # Class of committed instruction (Count)
system.cpu.commit.committedInstType_0::SimdFloatMult            0      0.00%     62.09% # Class of committed instruction (Count)
system.cpu.commit.committedInstType_0::SimdFloatMultAcc            0      0.00%     62.09% # Class of committed instruction (Count)
system.cpu.commit.committedInstType_0::SimdFloatSqrt            0      0.00%     62.09% # Class of committed instruction (Count)
system.cpu.commit.committedInstType_0::SimdReduceAdd            0      0.00%     62.09% # Class of committed instruction (Count)
system.cpu.commit.committedInstType_0::SimdReduceAlu            0      0.00%     62.09% # Class of committed instruction (Count)
system.cpu.commit.committedInstType_0::SimdReduceCmp            0      0.00%     62.09% # Class of committed instruction (Count)
system.cpu.commit.committedInstType_0::SimdFloatReduceAdd            0      0.00%     62.09% # Class of committed instruction (Count)
system.cpu.commit.committedInstType_0::SimdFloatReduceCmp            0      0.00%     62.09% # Class of committed instruction (Count)
system.cpu.commit.committedInstType_0::SimdAes            0      0.00%     62.09% # Class of committed instruction (Count)
system.cpu.commit.committedInstType_0::SimdAesMix            0      0.00%     62.09% # Class of committed instruction (Count)
system.cpu.commit.committedInstType_0::SimdSha1Hash            0      0.00%     62.09% # Class of committed instruction (Count)
system.cpu.commit.committedInstType_0::SimdSha1Hash2            0      0.00%     62.09% # Class of committed instruction (Count)
system.cpu.commit.committedInstType_0::SimdSha256Hash            0      0.00%     62.09% # Class of committed instruction (Count)
system.cpu.commit.committedInstType_0::SimdSha256Hash2            0      0.00%     62.09% # Class of committed instruction (Count)
system.cpu.commit.committedInstType_0::SimdShaSigma2            0      0.00%     62.09% # Class of committed instruction (Count)
system.cpu.commit.committedInstType_0::SimdShaSigma3            0      0.00%     62.09% # Class of committed instruction (Count)
system.cpu.commit.committedInstType_0::SimdPredAlu            0      0.00%     62.09% # Class of committed instruction (Count)
system.cpu.commit.committedInstType_0::MemRead     11958827     30.51%     92.60% # Class of committed instruction (Count)
system.cpu.commit.committedInstType_0::MemWrite      2898857      7.40%    100.00% # Class of committed instruction (Count)
system.cpu.commit.committedInstType_0::FloatMemRead           60      0.00%    100.00% # Class of committed instruction (Count)
system.cpu.commit.committedInstType_0::FloatMemWrite            0      0.00%    100.00% # Class of committed instruction (Count)
system.cpu.commit.committedInstType_0::IprAccess            0      0.00%    100.00% # Class of committed instruction (Count)
system.cpu.commit.committedInstType_0::InstPrefetch            0      0.00%    100.00% # Class of committed instruction (Count)
system.cpu.commit.committedInstType_0::total     39195877                       # Class of committed instruction (Count)
system.cpu.commit.commitEligibleSamples       3179627                       # number cycles where commit BW limit reached (Cycle)
system.cpu.dcache.demandHits::cpu.data       13811607                       # number of demand (read+write) hits (Count)
system.cpu.dcache.demandHits::total          13811607                       # number of demand (read+write) hits (Count)
system.cpu.dcache.overallHits::cpu.data      13811607                       # number of overall hits (Count)
system.cpu.dcache.overallHits::total         13811607                       # number of overall hits (Count)
system.cpu.dcache.demandMisses::cpu.data        83064                       # number of demand (read+write) misses (Count)
system.cpu.dcache.demandMisses::total           83064                       # number of demand (read+write) misses (Count)
system.cpu.dcache.overallMisses::cpu.data        83064                       # number of overall misses (Count)
system.cpu.dcache.overallMisses::total          83064                       # number of overall misses (Count)
system.cpu.dcache.demandMissLatency::cpu.data    884593500                       # number of demand (read+write) miss ticks (Tick)
system.cpu.dcache.demandMissLatency::total    884593500                       # number of demand (read+write) miss ticks (Tick)
system.cpu.dcache.overallMissLatency::cpu.data    884593500                       # number of overall miss ticks (Tick)
system.cpu.dcache.overallMissLatency::total    884593500                       # number of overall miss ticks (Tick)
system.cpu.dcache.demandAccesses::cpu.data     13894671                       # number of demand (read+write) accesses (Count)
system.cpu.dcache.demandAccesses::total      13894671                       # number of demand (read+write) accesses (Count)
system.cpu.dcache.overallAccesses::cpu.data     13894671                       # number of overall (read+write) accesses (Count)
system.cpu.dcache.overallAccesses::total     13894671                       # number of overall (read+write) accesses (Count)
system.cpu.dcache.demandMissRate::cpu.data     0.005978                       # miss rate for demand accesses (Ratio)
system.cpu.dcache.demandMissRate::total      0.005978                       # miss rate for demand accesses (Ratio)
system.cpu.dcache.overallMissRate::cpu.data     0.005978                       # miss rate for overall accesses (Ratio)
system.cpu.dcache.overallMissRate::total     0.005978                       # miss rate for overall accesses (Ratio)
system.cpu.dcache.demandAvgMissLatency::cpu.data 10649.541318                       # average overall miss latency in ticks ((Tick/Count))
system.cpu.dcache.demandAvgMissLatency::total 10649.541318                       # average overall miss latency in ticks ((Tick/Count))
system.cpu.dcache.overallAvgMissLatency::cpu.data 10649.541318                       # average overall miss latency ((Tick/Count))
system.cpu.dcache.overallAvgMissLatency::total 10649.541318                       # average overall miss latency ((Tick/Count))
system.cpu.dcache.blockedCycles::no_mshrs          303                       # number of cycles access was blocked (Cycle)
system.cpu.dcache.blockedCycles::no_targets            0                       # number of cycles access was blocked (Cycle)
system.cpu.dcache.blockedCauses::no_mshrs           29                       # number of times access was blocked (Count)
system.cpu.dcache.blockedCauses::no_targets            0                       # number of times access was blocked (Count)
system.cpu.dcache.avgBlocked::no_mshrs      10.448276                       # average number of cycles each access was blocked ((Cycle/Count))
system.cpu.dcache.avgBlocked::no_targets          nan                       # average number of cycles each access was blocked ((Cycle/Count))
system.cpu.dcache.writebacks::writebacks        29298                       # number of writebacks (Count)
system.cpu.dcache.writebacks::total             29298                       # number of writebacks (Count)
system.cpu.dcache.demandMshrHits::cpu.data        53498                       # number of demand (read+write) MSHR hits (Count)
system.cpu.dcache.demandMshrHits::total         53498                       # number of demand (read+write) MSHR hits (Count)
system.cpu.dcache.overallMshrHits::cpu.data        53498                       # number of overall MSHR hits (Count)
system.cpu.dcache.overallMshrHits::total        53498                       # number of overall MSHR hits (Count)
system.cpu.dcache.demandMshrMisses::cpu.data        29566                       # number of demand (read+write) MSHR misses (Count)
system.cpu.dcache.demandMshrMisses::total        29566                       # number of demand (read+write) MSHR misses (Count)
system.cpu.dcache.overallMshrMisses::cpu.data        29566                       # number of overall MSHR misses (Count)
system.cpu.dcache.overallMshrMisses::total        29566                       # number of overall MSHR misses (Count)
system.cpu.dcache.demandMshrMissLatency::cpu.data    406476500                       # number of demand (read+write) MSHR miss ticks (Tick)
system.cpu.dcache.demandMshrMissLatency::total    406476500                       # number of demand (read+write) MSHR miss ticks (Tick)
system.cpu.dcache.overallMshrMissLatency::cpu.data    406476500                       # number of overall MSHR miss ticks (Tick)
system.cpu.dcache.overallMshrMissLatency::total    406476500                       # number of overall MSHR miss ticks (Tick)
system.cpu.dcache.demandMshrMissRate::cpu.data     0.002128                       # mshr miss ratio for demand accesses (Ratio)
system.cpu.dcache.demandMshrMissRate::total     0.002128                       # mshr miss ratio for demand accesses (Ratio)
system.cpu.dcache.overallMshrMissRate::cpu.data     0.002128                       # mshr miss ratio for overall accesses (Ratio)
system.cpu.dcache.overallMshrMissRate::total     0.002128                       # mshr miss ratio for overall accesses (Ratio)
system.cpu.dcache.demandAvgMshrMissLatency::cpu.data 13748.105932                       # average overall mshr miss latency ((Tick/Count))
system.cpu.dcache.demandAvgMshrMissLatency::total 13748.105932                       # average overall mshr miss latency ((Tick/Count))
system.cpu.dcache.overallAvgMshrMissLatency::cpu.data 13748.105932                       # average overall mshr miss latency ((Tick/Count))
system.cpu.dcache.overallAvgMshrMissLatency::total 13748.105932                       # average overall mshr miss latency ((Tick/Count))
system.cpu.dcache.replacements                  29566                       # number of replacements (Count)
system.cpu.dcache.ReadReq.hits::cpu.data     10919560                       # number of ReadReq hits (Count)
system.cpu.dcache.ReadReq.hits::total        10919560                       # number of ReadReq hits (Count)
system.cpu.dcache.ReadReq.misses::cpu.data        76254                       # number of ReadReq misses (Count)
system.cpu.dcache.ReadReq.misses::total         76254                       # number of ReadReq misses (Count)
system.cpu.dcache.ReadReq.missLatency::cpu.data    744890000                       # number of ReadReq miss ticks (Tick)
system.cpu.dcache.ReadReq.missLatency::total    744890000                       # number of ReadReq miss ticks (Tick)
system.cpu.dcache.ReadReq.accesses::cpu.data     10995814                       # number of ReadReq accesses(hits+misses) (Count)
system.cpu.dcache.ReadReq.accesses::total     10995814                       # number of ReadReq accesses(hits+misses) (Count)
system.cpu.dcache.ReadReq.missRate::cpu.data     0.006935                       # miss rate for ReadReq accesses (Ratio)
system.cpu.dcache.ReadReq.missRate::total     0.006935                       # miss rate for ReadReq accesses (Ratio)
system.cpu.dcache.ReadReq.avgMissLatency::cpu.data  9768.536732                       # average ReadReq miss latency ((Tick/Count))
system.cpu.dcache.ReadReq.avgMissLatency::total  9768.536732                       # average ReadReq miss latency ((Tick/Count))
system.cpu.dcache.ReadReq.mshrHits::cpu.data        53475                       # number of ReadReq MSHR hits (Count)
system.cpu.dcache.ReadReq.mshrHits::total        53475                       # number of ReadReq MSHR hits (Count)
system.cpu.dcache.ReadReq.mshrMisses::cpu.data        22779                       # number of ReadReq MSHR misses (Count)
system.cpu.dcache.ReadReq.mshrMisses::total        22779                       # number of ReadReq MSHR misses (Count)
system.cpu.dcache.ReadReq.mshrMissLatency::cpu.data    273783500                       # number of ReadReq MSHR miss ticks (Tick)
system.cpu.dcache.ReadReq.mshrMissLatency::total    273783500                       # number of ReadReq MSHR miss ticks (Tick)
system.cpu.dcache.ReadReq.mshrMissRate::cpu.data     0.002072                       # mshr miss rate for ReadReq accesses (Ratio)
system.cpu.dcache.ReadReq.mshrMissRate::total     0.002072                       # mshr miss rate for ReadReq accesses (Ratio)
system.cpu.dcache.ReadReq.avgMshrMissLatency::cpu.data 12019.118486                       # average ReadReq mshr miss latency ((Tick/Count))
system.cpu.dcache.ReadReq.avgMshrMissLatency::total 12019.118486                       # average ReadReq mshr miss latency ((Tick/Count))
system.cpu.dcache.WriteReq.hits::cpu.data      2892047                       # number of WriteReq hits (Count)
system.cpu.dcache.WriteReq.hits::total        2892047                       # number of WriteReq hits (Count)
system.cpu.dcache.WriteReq.misses::cpu.data         6810                       # number of WriteReq misses (Count)
system.cpu.dcache.WriteReq.misses::total         6810                       # number of WriteReq misses (Count)
system.cpu.dcache.WriteReq.missLatency::cpu.data    139703500                       # number of WriteReq miss ticks (Tick)
system.cpu.dcache.WriteReq.missLatency::total    139703500                       # number of WriteReq miss ticks (Tick)
system.cpu.dcache.WriteReq.accesses::cpu.data      2898857                       # number of WriteReq accesses(hits+misses) (Count)
system.cpu.dcache.WriteReq.accesses::total      2898857                       # number of WriteReq accesses(hits+misses) (Count)
system.cpu.dcache.WriteReq.missRate::cpu.data     0.002349                       # miss rate for WriteReq accesses (Ratio)
system.cpu.dcache.WriteReq.missRate::total     0.002349                       # miss rate for WriteReq accesses (Ratio)
system.cpu.dcache.WriteReq.avgMissLatency::cpu.data 20514.464023                       # average WriteReq miss latency ((Tick/Count))
system.cpu.dcache.WriteReq.avgMissLatency::total 20514.464023                       # average WriteReq miss latency ((Tick/Count))
system.cpu.dcache.WriteReq.mshrHits::cpu.data           23                       # number of WriteReq MSHR hits (Count)
system.cpu.dcache.WriteReq.mshrHits::total           23                       # number of WriteReq MSHR hits (Count)
system.cpu.dcache.WriteReq.mshrMisses::cpu.data         6787                       # number of WriteReq MSHR misses (Count)
system.cpu.dcache.WriteReq.mshrMisses::total         6787                       # number of WriteReq MSHR misses (Count)
system.cpu.dcache.WriteReq.mshrMissLatency::cpu.data    132693000                       # number of WriteReq MSHR miss ticks (Tick)
system.cpu.dcache.WriteReq.mshrMissLatency::total    132693000                       # number of WriteReq MSHR miss ticks (Tick)
system.cpu.dcache.WriteReq.mshrMissRate::cpu.data     0.002341                       # mshr miss rate for WriteReq accesses (Ratio)
system.cpu.dcache.WriteReq.mshrMissRate::total     0.002341                       # mshr miss rate for WriteReq accesses (Ratio)
system.cpu.dcache.WriteReq.avgMshrMissLatency::cpu.data 19551.053485                       # average WriteReq mshr miss latency ((Tick/Count))
system.cpu.dcache.WriteReq.avgMshrMissLatency::total 19551.053485                       # average WriteReq mshr miss latency ((Tick/Count))
system.cpu.dcache.power_state.pwrStateResidencyTicks::UNDEFINED  11832211500                       # Cumulative time (in ticks) in various power states (Tick)
system.cpu.dcache.tags.tagsInUse                   64                       # Average ticks per tags in use ((Tick/Count))
system.cpu.dcache.tags.totalRefs             13796090                       # Total number of references to valid blocks. (Count)
system.cpu.dcache.tags.sampledRefs              29566                       # Sample count of references to valid blocks. (Count)
system.cpu.dcache.tags.avgRefs             466.620104                       # Average number of references to valid blocks. ((Count/Count))
system.cpu.dcache.tags.warmupTick            11573000                       # The tick when the warmup percentage was hit. (Tick)
system.cpu.dcache.tags.occupancies::cpu.data           64                       # Average occupied blocks per tick, per requestor ((Count/Tick))
system.cpu.dcache.tags.avgOccs::cpu.data            1                       # Average percentage of cache occupancy ((Ratio/Tick))
system.cpu.dcache.tags.avgOccs::total               1                       # Average percentage of cache occupancy ((Ratio/Tick))
system.cpu.dcache.tags.occupanciesTaskId::1024           64                       # Occupied blocks per task id (Count)
system.cpu.dcache.tags.ageTaskId_1024::0           36                       # Occupied blocks per task id, per block age (Count)
system.cpu.dcache.tags.ageTaskId_1024::1           25                       # Occupied blocks per task id, per block age (Count)
system.cpu.dcache.tags.ageTaskId_1024::2            3                       # Occupied blocks per task id, per block age (Count)
system.cpu.dcache.tags.ratioOccsTaskId::1024            1                       # Ratio of occupied blocks and all blocks, per task id (Ratio)
system.cpu.dcache.tags.tagAccesses           27818908                       # Number of tag accesses (Count)
system.cpu.dcache.tags.dataAccesses          27818908                       # Number of data accesses (Count)
system.cpu.dcache.tags.power_state.pwrStateResidencyTicks::UNDEFINED  11832211500                       # Cumulative time (in ticks) in various power states (Tick)
system.cpu.decode.idleCycles                  3552670                       # Number of cycles decode is idle (Cycle)
system.cpu.decode.blockedCycles               7288480                       # Number of cycles decode is blocked (Cycle)
system.cpu.decode.runCycles                   6767560                       # Number of cycles decode is running (Cycle)
system.cpu.decode.unblockCycles               3674918                       # Number of cycles decode is unblocking (Cycle)
system.cpu.decode.squashCycles                 428892                       # Number of cycles decode is squashing (Cycle)
system.cpu.decode.branchResolved              2724266                       # Number of times decode resolved a branch (Count)
system.cpu.decode.branchMispred                    49                       # Number of times decode detected a branch misprediction (Count)
system.cpu.decode.decodedInsts               59702773                       # Number of instructions handled by decode (Count)
system.cpu.decode.squashedInsts                   129                       # Number of squashed instructions handled by decode (Count)
system.cpu.fetch.icacheStallCycles            4643617                       # Number of cycles fetch is stalled on an Icache miss (Cycle)
system.cpu.fetch.insts                       44701107                       # Number of instructions fetch has processed (Count)
system.cpu.fetch.branches                     4901303                       # Number of branches that fetch encountered (Count)
system.cpu.fetch.predictedBranches            3493785                       # Number of branches that fetch has predicted taken (Count)
system.cpu.fetch.cycles                      16639962                       # Number of cycles fetch has run and was not squashing or blocked (Cycle)
system.cpu.fetch.squashCycles                  857882                       # Number of cycles fetch has spent squashing (Cycle)
system.cpu.fetch.cacheLines                   4428631                       # Number of cache lines fetched (Count)
system.cpu.fetch.icacheSquashes                 69851                       # Number of outstanding Icache misses that were squashed (Count)
system.cpu.fetch.nisnDist::samples           21712520                       # Number of instructions fetched each cycle (Total) (Count)
system.cpu.fetch.nisnDist::mean              3.143131                       # Number of instructions fetched each cycle (Total) (Count)
system.cpu.fetch.nisnDist::stdev             2.675306                       # Number of instructions fetched each cycle (Total) (Count)
system.cpu.fetch.nisnDist::underflows               0      0.00%      0.00% # Number of instructions fetched each cycle (Total) (Count)
system.cpu.fetch.nisnDist::0                  7625147     35.12%     35.12% # Number of instructions fetched each cycle (Total) (Count)
system.cpu.fetch.nisnDist::1                   581515      2.68%     37.80% # Number of instructions fetched each cycle (Total) (Count)
system.cpu.fetch.nisnDist::2                  1488029      6.85%     44.65% # Number of instructions fetched each cycle (Total) (Count)
system.cpu.fetch.nisnDist::3                  1966748      9.06%     53.71% # Number of instructions fetched each cycle (Total) (Count)
system.cpu.fetch.nisnDist::4                   270930      1.25%     54.96% # Number of instructions fetched each cycle (Total) (Count)
system.cpu.fetch.nisnDist::5                   977150      4.50%     59.46% # Number of instructions fetched each cycle (Total) (Count)
system.cpu.fetch.nisnDist::6                  8803001     40.54%    100.00% # Number of instructions fetched each cycle (Total) (Count)
system.cpu.fetch.nisnDist::overflows                0      0.00%    100.00% # Number of instructions fetched each cycle (Total) (Count)
system.cpu.fetch.nisnDist::min_value                0                       # Number of instructions fetched each cycle (Total) (Count)
system.cpu.fetch.nisnDist::max_value                6                       # Number of instructions fetched each cycle (Total) (Count)
system.cpu.fetch.nisnDist::total             21712520                       # Number of instructions fetched each cycle (Total) (Count)
system.cpu.fetch.branchRate                  0.224953                       # Number of branch fetches per cycle (Ratio)
system.cpu.fetch.rate                        2.051631                       # Number of inst fetches per cycle ((Count/Cycle))
system.cpu.icache.demandHits::cpu.inst        4427317                       # number of demand (read+write) hits (Count)
system.cpu.icache.demandHits::total           4427317                       # number of demand (read+write) hits (Count)
system.cpu.icache.overallHits::cpu.inst       4427317                       # number of overall hits (Count)
system.cpu.icache.overallHits::total          4427317                       # number of overall hits (Count)
system.cpu.icache.demandMisses::cpu.inst         1314                       # number of demand (read+write) misses (Count)
system.cpu.icache.demandMisses::total            1314                       # number of demand (read+write) misses (Count)
system.cpu.icache.overallMisses::cpu.inst         1314                       # number of overall misses (Count)
system.cpu.icache.overallMisses::total           1314                       # number of overall misses (Count)
system.cpu.icache.demandMissLatency::cpu.inst     60281000                       # number of demand (read+write) miss ticks (Tick)
system.cpu.icache.demandMissLatency::total     60281000                       # number of demand (read+write) miss ticks (Tick)
system.cpu.icache.overallMissLatency::cpu.inst     60281000                       # number of overall miss ticks (Tick)
system.cpu.icache.overallMissLatency::total     60281000                       # number of overall miss ticks (Tick)
system.cpu.icache.demandAccesses::cpu.inst      4428631                       # number of demand (read+write) accesses (Count)
system.cpu.icache.demandAccesses::total       4428631                       # number of demand (read+write) accesses (Count)
system.cpu.icache.overallAccesses::cpu.inst      4428631                       # number of overall (read+write) accesses (Count)
system.cpu.icache.overallAccesses::total      4428631                       # number of overall (read+write) accesses (Count)
system.cpu.icache.demandMissRate::cpu.inst     0.000297                       # miss rate for demand accesses (Ratio)
system.cpu.icache.demandMissRate::total      0.000297                       # miss rate for demand accesses (Ratio)
system.cpu.icache.overallMissRate::cpu.inst     0.000297                       # miss rate for overall accesses (Ratio)
system.cpu.icache.overallMissRate::total     0.000297                       # miss rate for overall accesses (Ratio)
system.cpu.icache.demandAvgMissLatency::cpu.inst 45875.951294                       # average overall miss latency in ticks ((Tick/Count))
system.cpu.icache.demandAvgMissLatency::total 45875.951294                       # average overall miss latency in ticks ((Tick/Count))
system.cpu.icache.overallAvgMissLatency::cpu.inst 45875.951294                       # average overall miss latency ((Tick/Count))
system.cpu.icache.overallAvgMissLatency::total 45875.951294                       # average overall miss latency ((Tick/Count))
system.cpu.icache.blockedCycles::no_mshrs            0                       # number of cycles access was blocked (Cycle)
system.cpu.icache.blockedCycles::no_targets            0                       # number of cycles access was blocked (Cycle)
system.cpu.icache.blockedCauses::no_mshrs            0                       # number of times access was blocked (Count)
system.cpu.icache.blockedCauses::no_targets            0                       # number of times access was blocked (Count)
system.cpu.icache.avgBlocked::no_mshrs            nan                       # average number of cycles each access was blocked ((Cycle/Count))
system.cpu.icache.avgBlocked::no_targets          nan                       # average number of cycles each access was blocked ((Cycle/Count))
system.cpu.icache.demandMshrHits::cpu.inst           70                       # number of demand (read+write) MSHR hits (Count)
system.cpu.icache.demandMshrHits::total            70                       # number of demand (read+write) MSHR hits (Count)
system.cpu.icache.overallMshrHits::cpu.inst           70                       # number of overall MSHR hits (Count)
system.cpu.icache.overallMshrHits::total           70                       # number of overall MSHR hits (Count)
system.cpu.icache.demandMshrMisses::cpu.inst         1244                       # number of demand (read+write) MSHR misses (Count)
system.cpu.icache.demandMshrMisses::total         1244                       # number of demand (read+write) MSHR misses (Count)
system.cpu.icache.overallMshrMisses::cpu.inst         1244                       # number of overall MSHR misses (Count)
system.cpu.icache.overallMshrMisses::total         1244                       # number of overall MSHR misses (Count)
system.cpu.icache.demandMshrMissLatency::cpu.inst     56135000                       # number of demand (read+write) MSHR miss ticks (Tick)
system.cpu.icache.demandMshrMissLatency::total     56135000                       # number of demand (read+write) MSHR miss ticks (Tick)
system.cpu.icache.overallMshrMissLatency::cpu.inst     56135000                       # number of overall MSHR miss ticks (Tick)
system.cpu.icache.overallMshrMissLatency::total     56135000                       # number of overall MSHR miss ticks (Tick)
system.cpu.icache.demandMshrMissRate::cpu.inst     0.000281                       # mshr miss ratio for demand accesses (Ratio)
system.cpu.icache.demandMshrMissRate::total     0.000281                       # mshr miss ratio for demand accesses (Ratio)
system.cpu.icache.overallMshrMissRate::cpu.inst     0.000281                       # mshr miss ratio for overall accesses (Ratio)
system.cpu.icache.overallMshrMissRate::total     0.000281                       # mshr miss ratio for overall accesses (Ratio)
system.cpu.icache.demandAvgMshrMissLatency::cpu.inst 45124.598071                       # average overall mshr miss latency ((Tick/Count))
system.cpu.icache.demandAvgMshrMissLatency::total 45124.598071                       # average overall mshr miss latency ((Tick/Count))
system.cpu.icache.overallAvgMshrMissLatency::cpu.inst 45124.598071                       # average overall mshr miss latency ((Tick/Count))
system.cpu.icache.overallAvgMshrMissLatency::total 45124.598071                       # average overall mshr miss latency ((Tick/Count))
system.cpu.icache.replacements                   1245                       # number of replacements (Count)
system.cpu.icache.ReadReq.hits::cpu.inst      4427317                       # number of ReadReq hits (Count)
system.cpu.icache.ReadReq.hits::total         4427317                       # number of ReadReq hits (Count)
system.cpu.icache.ReadReq.misses::cpu.inst         1314                       # number of ReadReq misses (Count)
system.cpu.icache.ReadReq.misses::total          1314                       # number of ReadReq misses (Count)
system.cpu.icache.ReadReq.missLatency::cpu.inst     60281000                       # number of ReadReq miss ticks (Tick)
system.cpu.icache.ReadReq.missLatency::total     60281000                       # number of ReadReq miss ticks (Tick)
system.cpu.icache.ReadReq.accesses::cpu.inst      4428631                       # number of ReadReq accesses(hits+misses) (Count)
system.cpu.icache.ReadReq.accesses::total      4428631                       # number of ReadReq accesses(hits+misses) (Count)
system.cpu.icache.ReadReq.missRate::cpu.inst     0.000297                       # miss rate for ReadReq accesses (Ratio)
system.cpu.icache.ReadReq.missRate::total     0.000297                       # miss rate for ReadReq accesses (Ratio)
system.cpu.icache.ReadReq.avgMissLatency::cpu.inst 45875.951294                       # average ReadReq miss latency ((Tick/Count))
system.cpu.icache.ReadReq.avgMissLatency::total 45875.951294                       # average ReadReq miss latency ((Tick/Count))
system.cpu.icache.ReadReq.mshrHits::cpu.inst           70                       # number of ReadReq MSHR hits (Count)
system.cpu.icache.ReadReq.mshrHits::total           70                       # number of ReadReq MSHR hits (Count)
system.cpu.icache.ReadReq.mshrMisses::cpu.inst         1244                       # number of ReadReq MSHR misses (Count)
system.cpu.icache.ReadReq.mshrMisses::total         1244                       # number of ReadReq MSHR misses (Count)
system.cpu.icache.ReadReq.mshrMissLatency::cpu.inst     56135000                       # number of ReadReq MSHR miss ticks (Tick)
system.cpu.icache.ReadReq.mshrMissLatency::total     56135000                       # number of ReadReq MSHR miss ticks (Tick)
system.cpu.icache.ReadReq.mshrMissRate::cpu.inst     0.000281                       # mshr miss rate for ReadReq accesses (Ratio)
system.cpu.icache.ReadReq.mshrMissRate::total     0.000281                       # mshr miss rate for ReadReq accesses (Ratio)
system.cpu.icache.ReadReq.avgMshrMissLatency::cpu.inst 45124.598071                       # average ReadReq mshr miss latency ((Tick/Count))
system.cpu.icache.ReadReq.avgMshrMissLatency::total 45124.598071                       # average ReadReq mshr miss latency ((Tick/Count))
system.cpu.icache.power_state.pwrStateResidencyTicks::UNDEFINED  11832211500                       # Cumulative time (in ticks) in various power states (Tick)
system.cpu.icache.tags.tagsInUse                   64                       # Average ticks per tags in use ((Tick/Count))
system.cpu.icache.tags.totalRefs              4127345                       # Total number of references to valid blocks. (Count)
system.cpu.icache.tags.sampledRefs               1245                       # Sample count of references to valid blocks. (Count)
system.cpu.icache.tags.avgRefs            3315.136546                       # Average number of references to valid blocks. ((Count/Count))
system.cpu.icache.tags.warmupTick             7148500                       # The tick when the warmup percentage was hit. (Tick)
system.cpu.icache.tags.occupancies::cpu.inst           64                       # Average occupied blocks per tick, per requestor ((Count/Tick))
system.cpu.icache.tags.avgOccs::cpu.inst            1                       # Average percentage of cache occupancy ((Ratio/Tick))
system.cpu.icache.tags.avgOccs::total               1                       # Average percentage of cache occupancy ((Ratio/Tick))
system.cpu.icache.tags.occupanciesTaskId::1024           64                       # Occupied blocks per task id (Count)
system.cpu.icache.tags.ageTaskId_1024::0           40                       # Occupied blocks per task id, per block age (Count)
system.cpu.icache.tags.ageTaskId_1024::4           24                       # Occupied blocks per task id, per block age (Count)
system.cpu.icache.tags.ratioOccsTaskId::1024            1                       # Ratio of occupied blocks and all blocks, per task id (Ratio)
system.cpu.icache.tags.tagAccesses            8858507                       # Number of tag accesses (Count)
system.cpu.icache.tags.dataAccesses           8858507                       # Number of data accesses (Count)
system.cpu.icache.tags.power_state.pwrStateResidencyTicks::UNDEFINED  11832211500                       # Cumulative time (in ticks) in various power states (Tick)
system.cpu.iew.idleCycles                           0                       # Number of cycles IEW is idle (Cycle)
system.cpu.iew.squashCycles                    428892                       # Number of cycles IEW is squashing (Cycle)
system.cpu.iew.blockCycles                    1858931                       # Number of cycles IEW is blocking (Cycle)
system.cpu.iew.unblockCycles                      642                       # Number of cycles IEW is unblocking (Cycle)
system.cpu.iew.dispatchedInsts               55498644                       # Number of instructions dispatched to IQ (Count)
system.cpu.iew.dispSquashedInsts                  673                       # Number of squashed instructions skipped by dispatch (Count)
system.cpu.iew.dispLoadInsts                 17703011                       # Number of dispatched load instructions (Count)
system.cpu.iew.dispStoreInsts                 4029857                       # Number of dispatched store instructions (Count)
system.cpu.iew.dispNonSpecInsts                     1                       # Number of dispatched non-speculative instructions (Count)
system.cpu.iew.iqFullEvents                       295                       # Number of times the IQ has become full, causing a stall (Count)
system.cpu.iew.lsqFullEvents                        0                       # Number of times the LSQ has become full, causing a stall (Count)
system.cpu.iew.memOrderViolationEvents            502                       # Number of memory order violations (Count)
system.cpu.iew.predictedTakenIncorrect         269671                       # Number of branches that were predicted taken incorrectly (Count)
system.cpu.iew.predictedNotTakenIncorrect       201647                       # Number of branches that were predicted not taken incorrectly (Count)
system.cpu.iew.branchMispredicts               471318                       # Number of branch mispredicts detected at execute (Count)
system.cpu.iew.instsToCommit                 50081694                       # Cumulative count of insts sent to commit (Count)
system.cpu.iew.writebackCount                49746199                       # Cumulative count of insts written-back (Count)
system.cpu.iew.producerInst                  41252405                       # Number of instructions producing a value (Count)
system.cpu.iew.consumerInst                  49569961                       # Number of instructions consuming a value (Count)
system.cpu.iew.wbRate                        2.283184                       # Insts written-back per cycle ((Count/Cycle))
system.cpu.iew.wbFanout                      0.832206                       # Average fanout of values written-back ((Count/Count))
system.cpu.interrupts.clk_domain.clock           8000                       # Clock period in ticks (Tick)
system.cpu.lsq0.forwLoads                     5442556                       # Number of loads that had data forwarded from stores (Count)
system.cpu.lsq0.squashedLoads                 5744122                       # Number of loads squashed (Count)
system.cpu.lsq0.ignoredResponses                46025                       # Number of memory responses ignored because the instruction is squashed (Count)
system.cpu.lsq0.memOrderViolation                 502                       # Number of memory ordering violations (Count)
system.cpu.lsq0.squashedStores                1131001                       # Number of stores squashed (Count)
system.cpu.lsq0.rescheduledLoads                    0                       # Number of loads that were rescheduled (Count)
system.cpu.lsq0.blockedByCache                     29                       # Number of times an access to memory failed due to the cache being blocked (Count)
system.cpu.lsq0.loadToUse::samples           11958887                       # Distribution of cycle latency between the first time a load is issued and its completion (Unspecified)
system.cpu.lsq0.loadToUse::mean              2.964594                       # Distribution of cycle latency between the first time a load is issued and its completion (Unspecified)
system.cpu.lsq0.loadToUse::stdev             1.533450                       # Distribution of cycle latency between the first time a load is issued and its completion (Unspecified)
system.cpu.lsq0.loadToUse::0-9               11906786     99.56%     99.56% # Distribution of cycle latency between the first time a load is issued and its completion (Unspecified)
system.cpu.lsq0.loadToUse::10-19                15959      0.13%     99.70% # Distribution of cycle latency between the first time a load is issued and its completion (Unspecified)
system.cpu.lsq0.loadToUse::20-29                35927      0.30%    100.00% # Distribution of cycle latency between the first time a load is issued and its completion (Unspecified)
system.cpu.lsq0.loadToUse::30-39                  128      0.00%    100.00% # Distribution of cycle latency between the first time a load is issued and its completion (Unspecified)
system.cpu.lsq0.loadToUse::40-49                   10      0.00%    100.00% # Distribution of cycle latency between the first time a load is issued and its completion (Unspecified)
system.cpu.lsq0.loadToUse::50-59                    5      0.00%    100.00% # Distribution of cycle latency between the first time a load is issued and its completion (Unspecified)
system.cpu.lsq0.loadToUse::60-69                   47      0.00%    100.00% # Distribution of cycle latency between the first time a load is issued and its completion (Unspecified)
system.cpu.lsq0.loadToUse::70-79                   14      0.00%    100.00% # Distribution of cycle latency between the first time a load is issued and its completion (Unspecified)
system.cpu.lsq0.loadToUse::110-119                  2      0.00%    100.00% # Distribution of cycle latency between the first time a load is issued and its completion (Unspecified)
system.cpu.lsq0.loadToUse::130-139                  1      0.00%    100.00% # Distribution of cycle latency between the first time a load is issued and its completion (Unspecified)
system.cpu.lsq0.loadToUse::160-169                  1      0.00%    100.00% # Distribution of cycle latency between the first time a load is issued and its completion (Unspecified)
[...]
system.mem_ctrls.dram.numReads::cpu.inst          707                       # Number of read requests responded to by this memory (Count)
system.mem_ctrls.dram.numReads::cpu.data         1320                       # Number of read requests responded to by this memory (Count)
system.mem_ctrls.dram.numReads::total            2027                       # Number of read requests responded to by this memory (Count)
system.mem_ctrls.dram.numWrites::writebacks         1266                       # Number of write requests responded to by this memory (Count)
system.mem_ctrls.dram.numWrites::total           1266                       # Number of write requests responded to by this memory (Count)
system.mem_ctrls.dram.bwRead::cpu.inst        4151505                       # Total read bandwidth from this memory ((Byte/Second))
system.mem_ctrls.dram.bwRead::cpu.data        7751041                       # Total read bandwidth from this memory ((Byte/Second))
system.mem_ctrls.dram.bwRead::total          11902546                       # Total read bandwidth from this memory ((Byte/Second))
system.mem_ctrls.dram.bwInstRead::cpu.inst      4151505                       # Instruction read bandwidth from this memory ((Byte/Second))
system.mem_ctrls.dram.bwInstRead::total       4151505                       # Instruction read bandwidth from this memory ((Byte/Second))
system.mem_ctrls.dram.bwWrite::writebacks      7433953                       # Write bandwidth from this memory ((Byte/Second))
system.mem_ctrls.dram.bwWrite::total          7433953                       # Write bandwidth from this memory ((Byte/Second))
system.mem_ctrls.dram.bwTotal::writebacks      7433953                       # Total bandwidth to/from this memory ((Byte/Second))
system.mem_ctrls.dram.bwTotal::cpu.inst       4151505                       # Total bandwidth to/from this memory ((Byte/Second))
system.mem_ctrls.dram.bwTotal::cpu.data       7751041                       # Total bandwidth to/from this memory ((Byte/Second))
system.mem_ctrls.dram.bwTotal::total         19336499                       # Total bandwidth to/from this memory ((Byte/Second))
system.mem_ctrls.dram.readBursts                 1311                       # Number of DRAM read bursts (Count)
system.mem_ctrls.dram.writeBursts                1267                       # Number of DRAM write bursts (Count)
system.mem_ctrls.dram.perBankRdBursts::0          167                       # Per bank write bursts (Count)
system.mem_ctrls.dram.perBankRdBursts::1           10                       # Per bank write bursts (Count)
system.mem_ctrls.dram.perBankRdBursts::2           15                       # Per bank write bursts (Count)
system.mem_ctrls.dram.perBankRdBursts::3            8                       # Per bank write bursts (Count)
system.mem_ctrls.dram.perBankRdBursts::4            1                       # Per bank write bursts (Count)
system.mem_ctrls.dram.perBankRdBursts::5           89                       # Per bank write bursts (Count)
system.mem_ctrls.dram.perBankRdBursts::6           92                       # Per bank write bursts (Count)
system.mem_ctrls.dram.perBankRdBursts::7          146                       # Per bank write bursts (Count)
system.mem_ctrls.dram.perBankRdBursts::8          260                       # Per bank write bursts (Count)
system.mem_ctrls.dram.perBankRdBursts::9          277                       # Per bank write bursts (Count)
system.mem_ctrls.dram.perBankRdBursts::10          134                       # Per bank write bursts (Count)
system.mem_ctrls.dram.perBankRdBursts::11           32                       # Per bank write bursts (Count)
system.mem_ctrls.dram.perBankRdBursts::12           27                       # Per bank write bursts (Count)
system.mem_ctrls.dram.perBankRdBursts::13            3                       # Per bank write bursts (Count)
system.mem_ctrls.dram.perBankRdBursts::14            3                       # Per bank write bursts (Count)
system.mem_ctrls.dram.perBankRdBursts::15           47                       # Per bank write bursts (Count)
system.mem_ctrls.dram.perBankWrBursts::0           45                       # Per bank write bursts (Count)
system.mem_ctrls.dram.perBankWrBursts::1            2                       # Per bank write bursts (Count)
system.mem_ctrls.dram.perBankWrBursts::2            0                       # Per bank write bursts (Count)
system.mem_ctrls.dram.perBankWrBursts::3            1                       # Per bank write bursts (Count)
system.mem_ctrls.dram.perBankWrBursts::4            0                       # Per bank write bursts (Count)
system.mem_ctrls.dram.perBankWrBursts::5            0                       # Per bank write bursts (Count)
system.mem_ctrls.dram.perBankWrBursts::6            0                       # Per bank write bursts (Count)
system.mem_ctrls.dram.perBankWrBursts::7            3                       # Per bank write bursts (Count)
system.mem_ctrls.dram.perBankWrBursts::8          255                       # Per bank write bursts (Count)
system.mem_ctrls.dram.perBankWrBursts::9          531                       # Per bank write bursts (Count)
system.mem_ctrls.dram.perBankWrBursts::10          426                       # Per bank write bursts (Count)
system.mem_ctrls.dram.perBankWrBursts::11            2                       # Per bank write bursts (Count)
system.mem_ctrls.dram.perBankWrBursts::12            0                       # Per bank write bursts (Count)
system.mem_ctrls.dram.perBankWrBursts::13            0                       # Per bank write bursts (Count)
system.mem_ctrls.dram.perBankWrBursts::14            0                       # Per bank write bursts (Count)
system.mem_ctrls.dram.perBankWrBursts::15            2                       # Per bank write bursts (Count)
system.mem_ctrls.dram.totQLat                11404250                       # Total ticks spent queuing (Tick)
system.mem_ctrls.dram.totBusLat               6555000                       # Total ticks spent in databus transfers (Tick)
system.mem_ctrls.dram.totMemAccLat           35985500                       # Total ticks spent from burst creation until serviced by the DRAM (Tick)
system.mem_ctrls.dram.avgQLat                 8698.89                       # Average queueing delay per DRAM burst ((Tick/Count))
system.mem_ctrls.dram.avgBusLat               5000.00                       # Average bus latency per DRAM burst ((Tick/Count))
system.mem_ctrls.dram.avgMemAccLat           27448.89                       # Average memory access latency per DRAM burst ((Tick/Count))
system.mem_ctrls.dram.readRowHits                1005                       # Number of row buffer hits during reads (Count)
system.mem_ctrls.dram.writeRowHits               1136                       # Number of row buffer hits during writes (Count)
system.mem_ctrls.dram.readRowHitRate            76.66                       # Row buffer hit rate for reads (Ratio)
system.mem_ctrls.dram.writeRowHitRate           89.66                       # Row buffer hit rate for writes (Ratio)
system.mem_ctrls.dram.bytesPerActivate::samples          442                       # Bytes accessed per row activation (Byte)
system.mem_ctrls.dram.bytesPerActivate::mean   376.760181                       # Bytes accessed per row activation (Byte)
system.mem_ctrls.dram.bytesPerActivate::gmean   253.396679                       # Bytes accessed per row activation (Byte)
system.mem_ctrls.dram.bytesPerActivate::stdev   320.222600                       # Bytes accessed per row activation (Byte)
system.mem_ctrls.dram.bytesPerActivate::0-127           90     20.36%     20.36% # Bytes accessed per row activation (Byte)
system.mem_ctrls.dram.bytesPerActivate::128-255           99     22.40%     42.76% # Bytes accessed per row activation (Byte)
system.mem_ctrls.dram.bytesPerActivate::256-383           70     15.84%     58.60% # Bytes accessed per row activation (Byte)
system.mem_ctrls.dram.bytesPerActivate::384-511           64     14.48%     73.08% # Bytes accessed per row activation (Byte)
system.mem_ctrls.dram.bytesPerActivate::512-639           30      6.79%     79.86% # Bytes accessed per row activation (Byte)
system.mem_ctrls.dram.bytesPerActivate::640-767           14      3.17%     83.03% # Bytes accessed per row activation (Byte)
system.mem_ctrls.dram.bytesPerActivate::768-895           10      2.26%     85.29% # Bytes accessed per row activation (Byte)
system.mem_ctrls.dram.bytesPerActivate::896-1023            7      1.58%     86.88% # Bytes accessed per row activation (Byte)
system.mem_ctrls.dram.bytesPerActivate::1024-1151           58     13.12%    100.00% # Bytes accessed per row activation (Byte)
system.mem_ctrls.dram.bytesPerActivate::total          442                       # Bytes accessed per row activation (Byte)
system.mem_ctrls.dram.bytesRead                 83904                       # Total bytes read (Byte)
system.mem_ctrls.dram.bytesWritten              81088                       # Total bytes written (Byte)
system.mem_ctrls.dram.avgRdBW                7.698193                       # Average DRAM read bandwidth in MiBytes/s ((Byte/Second))
system.mem_ctrls.dram.avgWrBW                7.439825                       # Average DRAM write bandwidth in MiBytes/s ((Byte/Second))
system.mem_ctrls.dram.peakBW                 12800.00                       # Theoretical peak bandwidth in MiByte/s ((Byte/Second))
system.mem_ctrls.dram.busUtil                    0.12                       # Data bus utilization in percentage (Ratio)
system.mem_ctrls.dram.busUtilRead                0.06                       # Data bus utilization in percentage for reads (Ratio)
system.mem_ctrls.dram.busUtilWrite               0.06                       # Data bus utilization in percentage for writes (Ratio)
system.mem_ctrls.dram.pageHitRate               83.05                       # Row buffer hit rate, read and write combined (Ratio)
system.mem_ctrls.dram.power_state.pwrStateResidencyTicks::UNDEFINED  11837351500                       # Cumulative time (in ticks) in various power states (Tick)
system.mem_ctrls.dram.rank0.actEnergy         1142400                       # Energy for activate commands per rank (pJ) (Joule)
system.mem_ctrls.dram.rank0.preEnergy          595815                       # Energy for precharge commands per rank (pJ) (Joule)
system.mem_ctrls.dram.rank0.readEnergy        4005540                       # Energy for read commands per rank (pJ) (Joule)
system.mem_ctrls.dram.rank0.writeEnergy        287100                       # Energy for write commands per rank (pJ) (Joule)
system.mem_ctrls.dram.rank0.refreshEnergy 860496000.000000                       # Energy for refresh commands per rank (pJ) (Joule)
system.mem_ctrls.dram.rank0.actBackEnergy    284395800                       # Energy for active background per rank (pJ) (Joule)
system.mem_ctrls.dram.rank0.preBackEnergy   3947156640                       # Energy for precharge background per rank (pJ) (Joule)
system.mem_ctrls.dram.rank0.actPowerDownEnergy            0                       # Energy for active power-down per rank (pJ) (Joule)
system.mem_ctrls.dram.rank0.prePowerDownEnergy            0                       # Energy for precharge power-down per rank (pJ) (Joule)
system.mem_ctrls.dram.rank0.selfRefreshEnergy            0                       # Energy for self refresh per rank (pJ) (Joule)
system.mem_ctrls.dram.rank0.totalEnergy    5098079295                       # Total energy per rank (pJ) (Joule)
system.mem_ctrls.dram.rank0.averagePower   467.748842                       # Core power per rank (mW) (Watt)
system.mem_ctrls.dram.rank0.totalIdleTime            0                       # Total Idle time Per DRAM Rank (Tick)
system.mem_ctrls.dram.rank0.pwrStateTime::IDLE  10259022000                       # Time in different power states (Tick)
system.mem_ctrls.dram.rank0.pwrStateTime::REF    364000000                       # Time in different power states (Tick)
system.mem_ctrls.dram.rank0.pwrStateTime::SREF            0                       # Time in different power states (Tick)
system.mem_ctrls.dram.rank0.pwrStateTime::PRE_PDN            0                       # Time in different power states (Tick)
system.mem_ctrls.dram.rank0.pwrStateTime::ACT    279705750                       # Time in different power states (Tick)
system.mem_ctrls.dram.rank0.pwrStateTime::ACT_PDN            0                       # Time in different power states (Tick)
system.mem_ctrls.dram.rank1.actEnergy         2127720                       # Energy for activate commands per rank (pJ) (Joule)
system.mem_ctrls.dram.rank1.preEnergy         1119525                       # Energy for precharge commands per rank (pJ) (Joule)
system.mem_ctrls.dram.rank1.readEnergy        5783400                       # Energy for read commands per rank (pJ) (Joule)
system.mem_ctrls.dram.rank1.writeEnergy       6613740                       # Energy for write commands per rank (pJ) (Joule)
system.mem_ctrls.dram.rank1.refreshEnergy 860496000.000000                       # Energy for refresh commands per rank (pJ) (Joule)
system.mem_ctrls.dram.rank1.actBackEnergy    413965920                       # Energy for active background per rank (pJ) (Joule)
system.mem_ctrls.dram.rank1.preBackEnergy   3838044960                       # Energy for precharge background per rank (pJ) (Joule)
system.mem_ctrls.dram.rank1.actPowerDownEnergy            0                       # Energy for active power-down per rank (pJ) (Joule)
system.mem_ctrls.dram.rank1.prePowerDownEnergy            0                       # Energy for precharge power-down per rank (pJ) (Joule)
system.mem_ctrls.dram.rank1.selfRefreshEnergy            0                       # Energy for self refresh per rank (pJ) (Joule)
system.mem_ctrls.dram.rank1.totalEnergy    5128151265                       # Total energy per rank (pJ) (Joule)
system.mem_ctrls.dram.rank1.averagePower   470.507946                       # Core power per rank (mW) (Watt)
system.mem_ctrls.dram.rank1.totalIdleTime            0                       # Total Idle time Per DRAM Rank (Tick)
system.mem_ctrls.dram.rank1.pwrStateTime::IDLE   9973991250                       # Time in different power states (Tick)
system.mem_ctrls.dram.rank1.pwrStateTime::REF    364000000                       # Time in different power states (Tick)
system.mem_ctrls.dram.rank1.pwrStateTime::SREF            0                       # Time in different power states (Tick)
system.mem_ctrls.dram.rank1.pwrStateTime::PRE_PDN            0                       # Time in different power states (Tick)
system.mem_ctrls.dram.rank1.pwrStateTime::ACT    564736500                       # Time in different power states (Tick)
system.mem_ctrls.dram.rank1.pwrStateTime::ACT_PDN            0                       # Time in different power states (Tick)
system.mem_ctrls.power_state.pwrStateResidencyTicks::UNDEFINED  11837351500                       # Cumulative time (in ticks) in various power states (Tick)
system.membus.transDist::ReadResp                 752                       # Transaction distribution (Count)
system.membus.transDist::WritebackDirty          1266                       # Transaction distribution (Count)
system.membus.transDist::CleanEvict               760                       # Transaction distribution (Count)
system.membus.transDist::ReadExReq               1275                       # Transaction distribution (Count)
system.membus.transDist::ReadExResp              1275                       # Transaction distribution (Count)
system.membus.transDist::ReadSharedReq            753                       # Transaction distribution (Count)
system.membus.pktCount_system.l2cache.mem_side_port::system.mem_ctrls.port         6081                       # Packet count per connected requestor and responder (Count)
system.membus.pktCount_system.l2cache.mem_side_port::total         6081                       # Packet count per connected requestor and responder (Count)
system.membus.pktCount::total                    6081                       # Packet count per connected requestor and responder (Count)
system.membus.pktSize_system.l2cache.mem_side_port::system.mem_ctrls.port       210752                       # Cumulative packet size per connected requestor and responder (Byte)
system.membus.pktSize_system.l2cache.mem_side_port::total       210752                       # Cumulative packet size per connected requestor and responder (Byte)
system.membus.pktSize::total                   210752                       # Cumulative packet size per connected requestor and responder (Byte)
system.membus.snoops                                0                       # Total snoops (Count)
system.membus.snoopTraffic                          0                       # Total snoop traffic (Byte)
system.membus.snoopFanout::samples               2028                       # Request fanout histogram (Count)
system.membus.snoopFanout::mean                     0                       # Request fanout histogram (Count)
system.membus.snoopFanout::stdev                    0                       # Request fanout histogram (Count)
system.membus.snoopFanout::underflows               0      0.00%      0.00% # Request fanout histogram (Count)
system.membus.snoopFanout::0                     2028    100.00%    100.00% # Request fanout histogram (Count)
system.membus.snoopFanout::1                        0      0.00%    100.00% # Request fanout histogram (Count)
system.membus.snoopFanout::overflows                0      0.00%    100.00% # Request fanout histogram (Count)
system.membus.snoopFanout::min_value                0                       # Request fanout histogram (Count)
system.membus.snoopFanout::max_value                0                       # Request fanout histogram (Count)
system.membus.snoopFanout::total                 2028                       # Request fanout histogram (Count)
system.membus.power_state.pwrStateResidencyTicks::UNDEFINED  11837351500                       # Cumulative time (in ticks) in various power states (Tick)
system.membus.reqLayer2.occupancy             4559000                       # Layer occupancy (ticks) (Tick)
system.membus.reqLayer2.utilization               0.0                       # Layer utilization (Ratio)
system.membus.respLayer1.occupancy            5321750                       # Layer occupancy (ticks) (Tick)
system.membus.respLayer1.utilization              0.0                       # Layer utilization (Ratio)
system.membus.snoop_filter.totRequests           4054                       # Total number of requests made to the snoop filter. (Count)
system.membus.snoop_filter.hitSingleRequests         2026                       # Number of requests hitting in the snoop filter with a single holder of the requested data. (Count)
system.membus.snoop_filter.hitMultiRequests            0                       # Number of requests hitting in the snoop filter with multiple (>1) holders of the requested data. (Count)
system.membus.snoop_filter.totSnoops                0                       # Total number of snoops made to the snoop filter. (Count)
system.membus.snoop_filter.hitSingleSnoops            0                       # Number of snoops hitting in the snoop filter with a single holder of the requested data. (Count)
system.membus.snoop_filter.hitMultiSnoops            0                       # Number of snoops hitting in the snoop filter with multiple (>1) holders of the requested data. (Count)
system.workload.inst.arm                            0                       # number of arm instructions executed (Count)
system.workload.inst.quiesce                        0                       # number of quiesce instructions executed (Count)

---------- End Simulation Statistics   ----------
