
---------- Begin Simulation Statistics ----------
simSeconds                                   0.013424                       # Number of seconds simulated (Second)
simTicks                                  13423659500                       # Number of ticks simulated (Tick)
finalTick                                 14536863000                       # Number of ticks from beginning of simulation (restored from checkpoints and never reset) (Tick)
simFreq                                  1000000000000                       # The number of ticks per simulated second ((Tick/Second))
hostSeconds                                    161.01                       # Real time elapsed on the host (Second)
hostTickRate                                 83373516                       # The number of ticks simulated per host second (ticks/s) ((Tick/Second))
hostMemory                                     800864                       # Number of bytes of host memory used (Byte)
simInsts                                     27246366                       # Number of instructions simulated (Count)
simOps                                       41958143                       # Number of ops (including micro ops) simulated (Count)
hostInstRate                                   169225                       # Simulator instruction rate (inst/s) ((Count/Second))
hostOpRate                                     260599                       # Simulator op (including micro ops) rate (op/s) ((Count/Second))
system.clk_domain.clock                           500                       # Clock period in ticks (Tick)
system.clk_domain.voltage_domain.voltage            1                       # Voltage in Volts (Volt)
system.cpu.numCycles                         26847319                       # Number of cpu cycles simulated (Cycle)
system.cpu.numWorkItemsStarted                      0                       # Number of work items this cpu started (Count)
system.cpu.numWorkItemsCompleted                    0                       # Number of work items this cpu completed (Count)
system.cpu.instsAdded                        83945606                       # Number of instructions added to the IQ (excludes non-spec) (Count)
system.cpu.nonSpecInstsAdded                        1                       # Number of non-speculative instructions added to the IQ (Count)
system.cpu.instsIssued                       67592525                       # Number of instructions issued (Count)
system.cpu.squashedInstsIssued                  20932                       # Number of squashed instructions issued (Count)
system.cpu.squashedInstsExamined             44749727                       # Number of squashed instructions iterated over during squash; mainly for profiling (Count)
system.cpu.squashedOperandsExamined          81241543                       # Number of squashed operands that are examined and possibly removed from graph (Count)
system.cpu.numIssuedDist::samples            26774294                       # Number of insts issued each cycle (Count)
system.cpu.numIssuedDist::mean               2.524531                       # Number of insts issued each cycle (Count)
system.cpu.numIssuedDist::stdev              2.253170                       # Number of insts issued each cycle (Count)
system.cpu.numIssuedDist::underflows                0      0.00%      0.00% # Number of insts issued each cycle (Count)
system.cpu.numIssuedDist::0                   8937286     33.38%     33.38% # Number of insts issued each cycle (Count)
system.cpu.numIssuedDist::1                   1446333      5.40%     38.78% # Number of insts issued each cycle (Count)
system.cpu.numIssuedDist::2                   2897072     10.82%     49.60% # Number of insts issued each cycle (Count)
system.cpu.numIssuedDist::3                   3893130     14.54%     64.14% # Number of insts issued each cycle (Count)
system.cpu.numIssuedDist::4                   3746513     13.99%     78.14% # Number of insts issued each cycle (Count)
system.cpu.numIssuedDist::5                   2879626     10.76%     88.89% # Number of insts issued each cycle (Count)
system.cpu.numIssuedDist::6                   1897193      7.09%     95.98% # Number of insts issued each cycle (Count)
system.cpu.numIssuedDist::7                    711810      2.66%     98.64% # Number of insts issued each cycle (Count)
system.cpu.numIssuedDist::8                    365331      1.36%    100.00% # Number of insts issued each cycle (Count)
system.cpu.numIssuedDist::overflows                 0      0.00%    100.00% # Number of insts issued each cycle (Count)
system.cpu.numIssuedDist::min_value                 0                       # Number of insts issued each cycle (Count)
system.cpu.numIssuedDist::max_value                 8                       # Number of insts issued each cycle (Count)
system.cpu.numIssuedDist::total              26774294                       # Number of insts issued each cycle (Count)
system.cpu.statFuBusy::No_OpClass                   0      0.00%      0.00% # attempts to use FU when none available (Count)
system.cpu.statFuBusy::IntAlu                       0      0.00%      0.00% # attempts to use FU when none available (Count)
system.cpu.statFuBusy::IntMult                      0      0.00%      0.00% # attempts to use FU when none available (Count)
system.cpu.statFuBusy::IntDiv                       0      0.00%      0.00% # attempts to use FU when none available (Count)
system.cpu.statFuBusy::FloatAdd                     0      0.00%      0.00% # attempts to use FU when none available (Count)
system.cpu.statFuBusy::FloatCmp                     0      0.00%      0.00% # attempts to use FU when none available (Count)
system.cpu.statFuBusy::FloatCvt                     0      0.00%      0.00% # attempts to use FU when none available (Count)
system.cpu.statFuBusy::FloatMult                    0      0.00%      0.00% # attempts to use FU when none available (Count)
system.cpu.statFuBusy::FloatMultAcc                 0      0.00%      0.00% # attempts to use FU when none available (Count)
system.cpu.statFuBusy::FloatDiv                     0      0.00%      0.00% # attempts to use FU when none available (Count)
system.cpu.statFuBusy::FloatMisc                    0      0.00%      0.00% # attempts to use FU when none available (Count)
system.cpu.statFuBusy::FloatSqrt                    0      0.00%      0.00% # attempts to use FU when none available (Count)
system.cpu.statFuBusy::SimdAdd                      0      0.00%      0.00% # attempts to use FU when none available (Count)
system.cpu.statFuBusy::SimdAddAcc                   0      0.00%      0.00% # attempts to use FU when none available (Count)
system.cpu.statFuBusy::SimdAlu                      0      0.00%      0.00% # attempts to use FU when none available (Count)
system.cpu.statFuBusy::SimdCmp                      0      0.00%      0.00% # attempts to use FU when none available (Count)
system.cpu.statFuBusy::SimdCvt                      0      0.00%      0.00% # attempts to use FU when none available (Count)
system.cpu.statFuBusy::SimdMisc                     0      0.00%      0.00% # attempts to use FU when none available (Count)
system.cpu.statFuBusy::SimdMult                     0      0.00%      0.00% # attempts to use FU when none available (Count)
system.cpu.statFuBusy::SimdMultAcc                  0      0.00%      0.00% # attempts to use FU when none available (Count)
system.cpu.statFuBusy::SimdShift                    0      0.00%      0.00% # attempts to use FU when none available (Count)
system.cpu.statFuBusy::SimdShiftAcc                 0      0.00%      0.00% # attempts to use FU when none available (Count)
system.cpu.statFuBusy::SimdDiv                      0      0.00%      0.00% # attempts to use FU when none available (Count)
system.cpu.statFuBusy::SimdSqrt                     0      0.00%      0.00% # attempts to use FU when none available (Count)
system.cpu.statFuBusy::SimdFloatAdd                 0      0.00%      0.00% # attempts to use FU when none available (Count)
system.cpu.statFuBusy::SimdFloatAlu                 0      0.00%      0.00% # attempts to use FU when none available (Count)
system.cpu.statFuBusy::SimdFloatCmp                 0      0.00%      0.00% # attempts to use FU when none available (Count)
system.cpu.statFuBusy::SimdFloatCvt                 0      0.00%      0.00% # attempts to use FU when none available (Count)
system.cpu.statFuBusy::SimdFloatDiv                 0      0.00%      0.00% # attempts to use FU when none available (Count)
system.cpu.statFuBusy::SimdFloatMisc                0      0.00%      0.00% # attempts to use FU when none available (Count)
system.cpu.statFuBusy::SimdFloatMult                0      0.00%      0.00% # attempts to use FU when none available (Count)
system.cpu.statFuBusy::SimdFloatMultAcc             0      0.00%      0.00% # attempts to use FU when none available (Count)
system.cpu.statFuBusy::SimdFloatSqrt                0      0.00%      0.00% # attempts to use FU when none available (Count)
system.cpu.statFuBusy::SimdReduceAdd                0      0.00%      0.00% # attempts to use FU when none available (Count)
system.cpu.statFuBusy::SimdReduceAlu                0      0.00%      0.00% # attempts to use FU when none available (Count)
system.cpu.statFuBusy::SimdReduceCmp                0      0.00%      0.00% # attempts to use FU when none available (Count)
system.cpu.statFuBusy::SimdFloatReduceAdd            0      0.00%      0.00% # attempts to use FU when none available (Count)
system.cpu.statFuBusy::SimdFloatReduceCmp            0      0.00%      0.00% # attempts to use FU when none available (Count)
system.cpu.statFuBusy::SimdAes                      0      0.00%      0.00% # attempts to use FU when none available (Count)
system.cpu.statFuBusy::SimdAesMix                   0      0.00%      0.00% # attempts to use FU when none available (Count)
system.cpu.statFuBusy::SimdSha1Hash                 0      0.00%      0.00% # attempts to use FU when none available (Count)
system.cpu.statFuBusy::SimdSha1Hash2                0      0.00%      0.00% # attempts to use FU when none available (Count)
system.cpu.statFuBusy::SimdSha256Hash               0      0.00%      0.00% # attempts to use FU when none available (Count)
system.cpu.statFuBusy::SimdSha256Hash2              0      0.00%      0.00% # attempts to use FU when none available (Count)
system.cpu.statFuBusy::SimdShaSigma2                0      0.00%      0.00% # attempts to use FU when none available (Count)
system.cpu.statFuBusy::SimdShaSigma3                0      0.00%      0.00% # attempts to use FU when none available (Count)
system.cpu.statFuBusy::SimdPredAlu                  0      0.00%      0.00% # attempts to use FU when none available (Count)
system.cpu.statFuBusy::MemRead                 521000     90.87%     90.87% # attempts to use FU when none available (Count)
system.cpu.statFuBusy::MemWrite                 52345      9.13%    100.00% # attempts to use FU when none available (Count)
system.cpu.statFuBusy::FloatMemRead                 0      0.00%    100.00% # attempts to use FU when none available (Count)
system.cpu.statFuBusy::FloatMemWrite                2      0.00%    100.00% # attempts to use FU when none available (Count)
system.cpu.statFuBusy::IprAccess                    0      0.00%    100.00% # attempts to use FU when none available (Count)
system.cpu.statFuBusy::InstPrefetch                 0      0.00%    100.00% # attempts to use FU when none available (Count)
system.cpu.statIssuedInstType_0::No_OpClass           94      0.00%      0.00% # Number of instructions issued per FU type, per thread (Count)
system.cpu.statIssuedInstType_0::IntAlu      40579295     60.04%     60.04% # Number of instructions issued per FU type, per thread (Count)
system.cpu.statIssuedInstType_0::IntMult       225225      0.33%     60.37% # Number of instructions issued per FU type, per thread (Count)
system.cpu.statIssuedInstType_0::IntDiv           105      0.00%     60.37% # Number of instructions issued per FU type, per thread (Count)
system.cpu.statIssuedInstType_0::FloatAdd           30      0.00%     60.37% # Number of instructions issued per FU type, per thread (Count)
system.cpu.statIssuedInstType_0::FloatCmp            0      0.00%     60.37% # Number of instructions issued per FU type, per thread (Count)
system.cpu.statIssuedInstType_0::FloatCvt            0      0.00%     60.37% # Number of instructions issued per FU type, per thread (Count)
system.cpu.statIssuedInstType_0::FloatMult            0      0.00%     60.37% # Number of instructions issued per FU type, per thread (Count)
system.cpu.statIssuedInstType_0::FloatMultAcc            0      0.00%     60.37% # Number of instructions issued per FU type, per thread (Count)
system.cpu.statIssuedInstType_0::FloatDiv            0      0.00%     60.37% # Number of instructions issued per FU type, per thread (Count)
system.cpu.statIssuedInstType_0::FloatMisc            0      0.00%     60.37% # Number of instructions issued per FU type, per thread (Count)
system.cpu.statIssuedInstType_0::FloatSqrt            0      0.00%     60.37% # Number of instructions issued per FU type, per thread (Count)
system.cpu.statIssuedInstType_0::SimdAdd            0      0.00%     60.37% # Number of instructions issued per FU type, per thread (Count)
system.cpu.statIssuedInstType_0::SimdAddAcc            0      0.00%     60.37% # Number of instructions issued per FU type, per thread (Count)
system.cpu.statIssuedInstType_0::SimdAlu           60      0.00%     60.37% # Number of instructions issued per FU type, per thread (Count)
system.cpu.statIssuedInstType_0::SimdCmp            0      0.00%     60.37% # Number of instructions issued per FU type, per thread (Count)
system.cpu.statIssuedInstType_0::SimdCvt          120      0.00%     60.37% # Number of instructions issued per FU type, per thread (Count)
system.cpu.statIssuedInstType_0::SimdMisc          330      0.00%     60.37% # Number of instructions issued per FU type, per thread (Count)
system.cpu.statIssuedInstType_0::SimdMult            0      0.00%     60.37% # Number of instructions issued per FU type, per thread (Count)
system.cpu.statIssuedInstType_0::SimdMultAcc            0      0.00%     60.37% # Number of instructions issued per FU type, per thread (Count)
system.cpu.statIssuedInstType_0::SimdShift            0      0.00%     60.37% # Number of instructions issued per FU type, per thread (Count)
system.cpu.statIssuedInstType_0::SimdShiftAcc            0      0.00%     60.37% # Number of instructions issued per FU type, per thread (Count)
system.cpu.statIssuedInstType_0::SimdDiv            0      0.00%     60.37% # Number of instructions issued per FU type, per thread (Count)
system.cpu.statIssuedInstType_0::SimdSqrt            0      0.00%     60.37% # Number of instructions issued per FU type, per thread (Count)
system.cpu.statIssuedInstType_0::SimdFloatAdd            0      0.00%     60.37% # Number of instructions issued per FU type, per thread (Count)
system.cpu.statIssuedInstType_0::SimdFloatAlu            0      0.00%     60.37% # Number of instructions issued per FU type, per thread (Count)
system.cpu.statIssuedInstType_0::SimdFloatCmp            0      0.00%     60.37% # Number of instructions issued per FU type, per thread (Count)
system.cpu.statIssuedInstType_0::SimdFloatCvt            0      0.00%     60.37% # Number of instructions issued per FU type, per thread (Count)
system.cpu.statIssuedInstType_0::SimdFloatDiv            0      0.00%     60.37% # Number of instructions issued per FU type, per thread (Count)
system.cpu.statIssuedInstType_0::SimdFloatMisc            0      0.00%     60.37% # Number of instructions issued per FU type, per thread (Count)
system.cpu.statIssuedInstType_0::SimdFloatMult            0      0.00%     60.37% # Number of instructions issued per FU type, per thread (Count)
system.cpu.statIssuedInstType_0::SimdFloatMultAcc            0      0.00%     60.37% # Number of instructions issued per FU type, per thread (Count)
system.cpu.statIssuedInstType_0::SimdFloatSqrt            0      0.00%     60.37% # Number of instructions issued per FU type, per thread (Count)
system.cpu.statIssuedInstType_0::SimdReduceAdd            0      0.00%     60.37% # Number of instructions issued per FU type, per thread (Count)
system.cpu.statIssuedInstType_0::SimdReduceAlu            0      0.00%     60.37% # Number of instructions issued per FU type, per thread (Count)
system.cpu.statIssuedInstType_0::SimdReduceCmp            0      0.00%     60.37% # Number of instructions issued per FU type, per thread (Count)
system.cpu.statIssuedInstType_0::SimdFloatReduceAdd            0      0.00%     60.37% # Number of instructions issued per FU type, per thread (Count)
system.cpu.statIssuedInstType_0::SimdFloatReduceCmp            0      0.00%     60.37% # Number of instructions issued per FU type, per thread (Count)
system.cpu.statIssuedInstType_0::SimdAes            0      0.00%     60.37% # Number of instructions issued per FU type, per thread (Count)
system.cpu.statIssuedInstType_0::SimdAesMix            0      0.00%     60.37% # Number of instructions issued per FU type, per thread (Count)
system.cpu.statIssuedInstType_0::SimdSha1Hash            0      0.00%     60.37% # Number of instructions issued per FU type, per thread (Count)
system.cpu.statIssuedInstType_0::SimdSha1Hash2            0      0.00%     60.37% # Number of instructions issued per FU type, per thread (Count)
system.cpu.statIssuedInstType_0::SimdSha256Hash            0      0.00%     60.37% # Number of instructions issued per FU type, per thread (Count)
system.cpu.statIssuedInstType_0::SimdSha256Hash2            0      0.00%     60.37% # Number of instructions issued per FU type, per thread (Count)
system.cpu.statIssuedInstType_0::SimdShaSigma2            0      0.00%     60.37% # Number of instructions issued per FU type, per thread (Count)
system.cpu.statIssuedInstType_0::SimdShaSigma3            0      0.00%     60.37% # Number of instructions issued per FU type, per thread (Count)
system.cpu.statIssuedInstType_0::SimdPredAlu            0      0.00%     60.37% # Number of instructions issued per FU type, per thread (Count)
system.cpu.statIssuedInstType_0::MemRead     22437826     33.20%     93.57% # Number of instructions issued per FU type, per thread (Count)
system.cpu.statIssuedInstType_0::MemWrite      4349376      6.43%    100.00% # Number of instructions issued per FU type, per thread (Count)
system.cpu.statIssuedInstType_0::FloatMemRead           60      0.00%    100.00% # Number of instructions issued per FU type, per thread (Count)
system.cpu.statIssuedInstType_0::FloatMemWrite            4      0.00%    100.00% # Number of instructions issued per FU type, per thread (Count)
system.cpu.statIssuedInstType_0::IprAccess            0      0.00%    100.00% # Number of instructions issued per FU type, per thread (Count)
system.cpu.statIssuedInstType_0::InstPrefetch            0      0.00%    100.00% # Number of instructions issued per FU type, per thread (Count)
system.cpu.statIssuedInstType_0::total       67592525                       # Number of instructions issued per FU type, per thread (Count)
system.cpu.issueRate                         2.517664                       # Inst issue rate ((Count/Cycle))
system.cpu.fuBusy                              573347                       # FU busy when requested (Count)
system.cpu.fuBusyRate                        0.008482                       # FU busy rate (busy events/executed inst) ((Count/Count))
system.cpu.intInstQueueReads                162552233                       # Number of integer instruction queue reads (Count)
system.cpu.intInstQueueWrites               128695804                       # Number of integer instruction queue writes (Count)
system.cpu.intInstQueueWakeupAccesses        65098692                       # Number of integer instruction queue wakeup accesses (Count)
system.cpu.fpInstQueueReads                      1391                       # Number of floating instruction queue reads (Count)
system.cpu.fpInstQueueWrites                      700                       # Number of floating instruction queue writes (Count)
system.cpu.fpInstQueueWakeupAccesses              694                       # Number of floating instruction queue wakeup accesses (Count)
system.cpu.vecInstQueueReads                        0                       # Number of vector instruction queue reads (Count)
system.cpu.vecInstQueueWrites                       0                       # Number of vector instruction queue writes (Count)
system.cpu.vecInstQueueWakeupAccesses               0                       # Number of vector instruction queue wakeup accesses (Count)
system.cpu.intAluAccesses                    68165082                       # Number of integer alu accesses (Count)
system.cpu.fpAluAccesses                          696                       # Number of floating point alu accesses (Count)
system.cpu.vecAluAccesses                           0                       # Number of vector alu accesses (Count)
system.cpu.numInsts                          66341901                       # Number of executed instructions (Count)
system.cpu.numLoadInsts                      21839870                       # Number of load instructions executed (Count)
system.cpu.numSquashedInsts                   1250625                       # Number of squashed instructions skipped in execute (Count)
system.cpu.numSwp                                   0                       # Number of swp insts executed (Count)
system.cpu.numNop                                   0                       # Number of nop insts executed (Count)
system.cpu.numRefs                           26002548                       # Number of memory reference insts executed (Count)
system.cpu.numBranches                        4213905                       # Number of branches executed (Count)
system.cpu.numStoreInsts                      4162678                       # Number of stores executed (Count)
system.cpu.numRate                           2.471081                       # Inst execution rate ((Count/Cycle))
system.cpu.timesIdled                            1026                       # Number of times that the entire CPU went into an idle state and unscheduled itself (Count)
system.cpu.idleCycles                           73025                       # Total number of cycles that the CPU has spent unscheduled due to idling (Cycle)
system.cpu.committedInsts                    25467459                       # Number of Instructions Simulated (Count)
system.cpu.committedOps                      39195877                       # Number of Ops (including micro ops) Simulated (Count)
system.cpu.cpi                               1.054181                       # CPI: Cycles Per Instruction ((Cycle/Count))
system.cpu.totalCpi                          1.054181                       # CPI: Total CPI of All Threads ((Cycle/Count))
system.cpu.ipc                               0.948603                       # IPC: Instructions Per Cycle ((Count/Cycle))
system.cpu.totalIpc                          0.948603                       # IPC: Total IPC of All Threads ((Count/Cycle))
system.cpu.intRegfileReads                   75979603                       # Number of integer regfile reads (Count)
system.cpu.intRegfileWrites                  54632169                       # Number of integer regfile writes (Count)
system.cpu.fpRegfileReads                        1234                       # Number of floating regfile reads (Count)
system.cpu.fpRegfileWrites                        570                       # Number of floating regfile writes (Count)
system.cpu.ccRegfileReads                    13982247                       # number of cc regfile reads (Count)
system.cpu.ccRegfileWrites                   19220176                       # number of cc regfile writes (Count)
system.cpu.miscRegfileReads                  36338355                       # number of misc regfile reads (Count)
system.cpu.MemDepUnit__0.insertedLoads       26987818                       # Number of loads inserted to the mem dependence unit. (Count)
system.cpu.MemDepUnit__0.insertedStores       6243054                       # Number of stores inserted to the mem dependence unit. (Count)
system.cpu.MemDepUnit__0.conflictingLoads      9809602                       # Number of conflicting loads. (Count)
system.cpu.MemDepUnit__0.conflictingStores      2650287                       # Number of conflicting stores. (Count)
system.cpu.MemDepUnit__1.insertedLoads              0                       # Number of loads inserted to the mem dependence unit. (Count)
system.cpu.MemDepUnit__1.insertedStores             0                       # Number of stores inserted to the mem dependence unit. (Count)
system.cpu.MemDepUnit__1.conflictingLoads            0                       # Number of conflicting loads. (Count)
system.cpu.MemDepUnit__1.conflictingStores            0                       # Number of conflicting stores. (Count)
system.cpu.MemDepUnit__2.insertedLoads              0                       # Number of loads inserted to the mem dependence unit. (Count)
system.cpu.MemDepUnit__2.insertedStores             0                       # Number of stores inserted to the mem dependence unit. (Count)
system.cpu.MemDepUnit__2.conflictingLoads            0                       # Number of conflicting loads. (Count)
system.cpu.MemDepUnit__2.conflictingStores            0                       # Number of conflicting stores. (Count)
system.cpu.MemDepUnit__3.insertedLoads              0                       # Number of loads inserted to the mem dependence unit. (Count)
system.cpu.MemDepUnit__3.insertedStores             0                       # Number of stores inserted to the mem dependence unit. (Count)
system.cpu.MemDepUnit__3.conflictingLoads            0                       # Number of conflicting loads. (Count)
system.cpu.MemDepUnit__3.conflictingStores            0                       # Number of conflicting stores. (Count)
system.cpu.branchPred.lookups                 7185088                       # Number of BP lookups (Count)
system.cpu.branchPred.condPredicted           5239911                       # Number of conditional branches predicted (Count)
system.cpu.branchPred.condIncorrect            566332                       # Number of conditional branches incorrect (Count)
system.cpu.branchPred.BTBLookups              4639624                       # Number of BTB lookups (Count)
system.cpu.branchPred.BTBHits                 4639389                       # Number of BTB hits (Count)
system.cpu.branchPred.BTBHitRatio            0.999949                       # BTB Hit Ratio (Ratio)
system.cpu.branchPred.RASUsed                  331778                       # Number of times the RAS was used to get a target. (Count)
system.cpu.branchPred.RASIncorrect                305                       # Number of incorrect RAS predictions. (Count)
system.cpu.branchPred.indirectLookups             460                       # Number of indirect predictor lookups. (Count)
system.cpu.branchPred.indirectHits                279                       # Number of indirect target hits. (Count)
system.cpu.branchPred.indirectMisses              181                       # Number of indirect misses. (Count)
system.cpu.branchPred.indirectMispredicted           16                       # Number of mispredicted indirect branches. (Count)
system.cpu.commit.commitSquashedInsts        44749187                       # The number of squashed insts skipped by commit (Count)
system.cpu.commit.commitNonSpecStalls               1                       # The number of times commit has been forced to stall to communicate backwards (Count)
system.cpu.commit.branchMispredicts            566285                       # The number of times a branch was mispredicted (Count)
system.cpu.commit.numCommittedDist::samples     20773993                       # Number of insts commited each cycle (Count)
system.cpu.commit.numCommittedDist::mean     1.886776                       # Number of insts commited each cycle (Count)
system.cpu.commit.numCommittedDist::stdev     2.500812                       # Number of insts commited each cycle (Count)
system.cpu.commit.numCommittedDist::underflows            0      0.00%      0.00% # Number of insts commited each cycle (Count)
system.cpu.commit.numCommittedDist::0         7889749     37.98%     37.98% # Number of insts commited each cycle (Count)
system.cpu.commit.numCommittedDist::1         4863678     23.41%     61.39% # Number of insts commited each cycle (Count)
system.cpu.commit.numCommittedDist::2         3176692     15.29%     76.68% # Number of insts commited each cycle (Count)
system.cpu.commit.numCommittedDist::3         1509055      7.26%     83.95% # Number of insts commited each cycle (Count)
system.cpu.commit.numCommittedDist::4          430554      2.07%     86.02% # Number of insts commited each cycle (Count)
system.cpu.commit.numCommittedDist::5          391328      1.88%     87.90% # Number of insts commited each cycle (Count)
system.cpu.commit.numCommittedDist::6           92119      0.44%     88.35% # Number of insts commited each cycle (Count)
system.cpu.commit.numCommittedDist::7          146464      0.71%     89.05% # Number of insts commited each cycle (Count)
system.cpu.commit.numCommittedDist::8         2274354     10.95%    100.00% # Number of insts commited each cycle (Count)
system.cpu.commit.numCommittedDist::overflows            0      0.00%    100.00% # Number of insts commited each cycle (Count)
system.cpu.commit.numCommittedDist::min_value            0                       # Number of insts commited each cycle (Count)
system.cpu.commit.numCommittedDist::max_value            8                       # Number of insts commited each cycle (Count)
system.cpu.commit.numCommittedDist::total     20773993                       # Number of insts commited each cycle (Count)
system.cpu.commit.instsCommitted             25467459                       # Number of instructions committed (Count)
system.cpu.commit.opsCommitted               39195877                       # Number of ops (including micro ops) committed (Count)
system.cpu.commit.memRefs                    14857744                       # Number of memory references committed (Count)
system.cpu.commit.loads                      11958887                       # Number of loads committed (Count)
system.cpu.commit.amos                              0                       # Number of atomic instructions committed (Count)
system.cpu.commit.membars                           0                       # Number of memory barriers committed (Count)
system.cpu.commit.branches                    2923534                       # Number of branches committed (Count)
system.cpu.commit.vectorInstructions                0                       # Number of committed Vector instructions. (Count)
system.cpu.commit.floating                        690                       # Number of committed floating point instructions. (Count)
system.cpu.commit.integer                    39195306                       # Number of committed integer instructions. (Count)
system.cpu.commit.functionCalls                141796                       # Number of function calls committed. (Count)
system.cpu.commit.committedInstType_0::No_OpClass           45      0.00%      0.00% # Class of committed instruction (Count)
system.cpu.commit.committedInstType_0::IntAlu     24112368     61.52%     61.52% # Class of committed instruction (Count)
system.cpu.commit.committedInstType_0::IntMult       225075      0.57%     62.09% # Class of committed instruction (Count)
system.cpu.commit.committedInstType_0::IntDiv          105      0.00%     62.09% # Class of committed instruction (Count)
system.cpu.commit.committedInstType_0::FloatAdd           30      0.00%     62.09% # Class of committed instruction (Count)
system.cpu.commit.committedInstType_0::FloatCmp            0      0.00%     62.09% # Class of committed instruction (Count)
system.cpu.commit.committedInstType_0::FloatCvt            0      0.00%     62.09% # Class of committed instruction (Count)
system.cpu.commit.committedInstType_0::FloatMult            0      0.00%     62.09% # Class of committed instruction (Count)
system.cpu.commit.committedInstType_0::FloatMultAcc            0      0.00%     62.09% # Class of committed instruction (Count)
system.cpu.commit.committedInstType_0::FloatDiv            0      0.00%     62.09% # Class of committed instruction (Count)
system.cpu.commit.committedInstType_0::FloatMisc            0      0.00%     62.09% # Class of committed instruction (Count)
system.cpu.commit.committedInstType_0::FloatSqrt            0      0.00%     62.09% # Class of committed instruction (Count)
system.cpu.commit.committedInstType_0::SimdAdd            0      0.00%     62.09% # Class of committed instruction (Count)
system.cpu.commit.committedInstType_0::SimdAddAcc            0      0.00%     62.09% # Class of committed instruction (Count)
system.cpu.commit.committedInstType_0::SimdAlu           60      0.00%     62.09% # Class of committed instruction (Count)
system.cpu.commit.committedInstType_0::SimdCmp            0      0.00%     62.09% # Class of committed instruction (Count)
system.cpu.commit.committedInstType_0::SimdCvt          120      0.00%     62.09% # Class of committed instruction (Count)
system.cpu.commit.committedInstType_0::SimdMisc          330      0.00%     62.09% # Class of committed instruction (Count)
system.cpu.commit.committedInstType_0::SimdMult            0      0.00%     62.09% # Class of committed instruction (Count)
system.cpu.commit.committedInstType_0::SimdMultAcc            0      0.00%     62.09% # Class of committed instruction (Count)
system.cpu.commit.committedInstType_0::SimdShift            0      0.00%     62.09% # Class of committed instruction (Count)
system.cpu.commit.committedInstType_0::SimdShiftAcc            0      0.00%     62.09% # Class of committed instruction (Count)
system.cpu.commit.committedInstType_0::SimdDiv            0      0.00%     62.09% # Class of committed instruction (Count)
system.cpu.commit.committedInstType_0::SimdSqrt            0      0.00%     62.09% # Class of committed instruction (Count)
system.cpu.commit.committedInstType_0::SimdFloatAdd            0      0.00%     62.09% # Class of committed instruction (Count)
system.cpu.commit.committedInstType_0::SimdFloatAlu            0      0.00%     62.09% # Class of committed instruction (Count)
system.cpu.commit.committedInstType_0::SimdFloatCmp            0      0.00%     62.09% # Class of committed instruction (Count)
system.cpu.commit.committedInstType_0::SimdFloatCvt            0      0.00%     62.09% # Class of committed instruction (Count)
system.cpu.commit.committedInstType_0::SimdFloatDiv            0      0.00%     62.09% # Class of committed instruction (Count)
system.cpu.commit.committedInstType_0::SimdFloatMisc            0      0.00%     62.09% # Class of committed instruction (Count)
system.cpu.commit.committedInstType_0::SimdFloatMult            0      0.00%     62.09% # Class of committed instruction (Count)
system.cpu.commit.committedInstType_0::SimdFloatMultAcc            0      0.00%     62.09% # Class of committed instruction (Count)
system.cpu.commit.committedInstType_0::SimdFloatSqrt            0      0.00%     62.09% # Class of committed instruction (Count)
system.cpu.commit.committedInstType_0::SimdReduceAdd            0      0.00%     62.09% # Class of committed instruction (Count)
system.cpu.commit.committedInstType_0::SimdReduceAlu            0      0.00%     62.09% # Class of committed instruction (Count)
system.cpu.commit.committedInstType_0::SimdReduceCmp            0      0.00%     62.09% # Class of committed instruction (Count)
system.cpu.commit.committedInstType_0::SimdFloatReduceAdd            0      0.00%     62.09% # Class of committed instruction (Count)
system.cpu.commit.committedInstType_0::SimdFloatReduceCmp            0      0.00%     62.09% # Class of committed instruction (Count)
system.cpu.commit.committedInstType_0::SimdAes            0      0.00%     62.09% # Class of committed instruction (Count)
system.cpu.commit.committedInstType_0::SimdAesMix            0      0.00%     62.09% # Class of committed instruction (Count)
system.cpu.commit.committedInstType_0::SimdSha1Hash            0      0.00%     62.09% # Class of committed instruction (Count)
system.cpu.commit.committedInstType_0::SimdSha1Hash2            0      0.00%     62.09% # Class of committed instruction (Count)
system.cpu.commit.committedInstType_0::SimdSha256Hash            0      0.00%     62.09% # Class of committed instruction (Count)
system.cpu.commit.committedInstType_0::SimdSha256Hash2            0      0.00%     62.09% # Class of committed instruction (Count)
system.cpu.commit.committedInstType_0::SimdShaSigma2            0      0.00%     62.09% # Class of committed instruction (Count)
system.cpu.commit.committedInstType_0::SimdShaSigma3            0      0.00%     62.09% # Class of committed instruction (Count)
system.cpu.commit.committedInstType_0::SimdPredAlu            0      0.00%     62.09% # Class of committed instruction (Count)
system.cpu.commit.committedInstType_0::MemRead     11958827     30.51%     92.60% # Class of committed instruction (Count)
system.cpu.commit.committedInstType_0::MemWrite      2898857      7.40%    100.00% # Class of committed instruction (Count)
system.cpu.commit.committedInstType_0::FloatMemRead           60      0.00%    100.00% # Class of committed instruction (Count)
system.cpu.commit.committedInstType_0::FloatMemWrite            0      0.00%    100.00% # Class of committed instruction (Count)
system.cpu.commit.committedInstType_0::IprAccess            0      0.00%    100.00% # Class of committed instruction (Count)
system.cpu.commit.committedInstType_0::InstPrefetch            0      0.00%    100.00% # Class of committed instruction (Count)
system.cpu.commit.committedInstType_0::total     39195877                       # Class of committed instruction (Count)
system.cpu.commit.commitEligibleSamples       2274354                       # number cycles where commit BW limit reached (Cycle)
system.cpu.dcache.demandHits::cpu.data       16793074                       # number of demand (read+write) hits (Count)
system.cpu.dcache.demandHits::total          16793074                       # number of demand (read+write) hits (Count)
system.cpu.dcache.overallHits::cpu.data      16793074                       # number of overall hits (Count)
system.cpu.dcache.overallHits::total         16793074                       # number of overall hits (Count)
system.cpu.dcache.demandMisses::cpu.data        90946                       # number of demand (read+write) misses (Count)
system.cpu.dcache.demandMisses::total           90946                       # number of demand (read+write) misses (Count)
system.cpu.dcache.overallMisses::cpu.data        90946                       # number of overall misses (Count)
system.cpu.dcache.overallMisses::total          90946                       # number of overall misses (Count)
system.cpu.dcache.demandMissLatency::cpu.data    991789499                       # number of demand (read+write) miss ticks (Tick)
system.cpu.dcache.demandMissLatency::total    991789499                       # number of demand (read+write) miss ticks (Tick)
system.cpu.dcache.overallMissLatency::cpu.data    991789499                       # number of overall miss ticks (Tick)
system.cpu.dcache.overallMissLatency::total    991789499                       # number of overall miss ticks (Tick)
system.cpu.dcache.demandAccesses::cpu.data     16884020                       # number of demand (read+write) accesses (Count)
system.cpu.dcache.demandAccesses::total      16884020                       # number of demand (read+write) accesses (Count)
system.cpu.dcache.overallAccesses::cpu.data     16884020                       # number of overall (read+write) accesses (Count)
system.cpu.dcache.overallAccesses::total     16884020                       # number of overall (read+write) accesses (Count)
system.cpu.dcache.demandMissRate::cpu.data     0.005387                       # miss rate for demand accesses (Ratio)
system.cpu.dcache.demandMissRate::total      0.005387                       # miss rate for demand accesses (Ratio)
system.cpu.dcache.overallMissRate::cpu.data     0.005387                       # miss rate for overall accesses (Ratio)
system.cpu.dcache.overallMissRate::total     0.005387                       # miss rate for overall accesses (Ratio)
system.cpu.dcache.demandAvgMissLatency::cpu.data 10905.256955                       # average overall miss latency in ticks ((Tick/Count))
system.cpu.dcache.demandAvgMissLatency::total 10905.256955                       # average overall miss latency in ticks ((Tick/Count))
system.cpu.dcache.overallAvgMissLatency::cpu.data 10905.256955                       # average overall miss latency ((Tick/Count))
system.cpu.dcache.overallAvgMissLatency::total 10905.256955                       # average overall miss latency ((Tick/Count))
system.cpu.dcache.blockedCycles::no_mshrs          780                       # number of cycles access was blocked (Cycle)
system.cpu.dcache.blockedCycles::no_targets            6                       # number of cycles access was blocked (Cycle)
system.cpu.dcache.blockedCauses::no_mshrs          103                       # number of times access was blocked (Count)
system.cpu.dcache.blockedCauses::no_targets            2                       # number of times access was blocked (Count)
system.cpu.dcache.avgBlocked::no_mshrs       7.572816                       # average number of cycles each access was blocked ((Cycle/Count))
system.cpu.dcache.avgBlocked::no_targets            3                       # average number of cycles each access was blocked ((Cycle/Count))
system.cpu.dcache.writebacks::writebacks        29537                       # number of writebacks (Count)
system.cpu.dcache.writebacks::total             29537                       # number of writebacks (Count)
system.cpu.dcache.demandMshrHits::cpu.data        61107                       # number of demand (read+write) MSHR hits (Count)
system.cpu.dcache.demandMshrHits::total         61107                       # number of demand (read+write) MSHR hits (Count)
system.cpu.dcache.overallMshrHits::cpu.data        61107                       # number of overall MSHR hits (Count)
system.cpu.dcache.overallMshrHits::total        61107                       # number of overall MSHR hits (Count)
system.cpu.dcache.demandMshrMisses::cpu.data        29839                       # number of demand (read+write) MSHR misses (Count)
system.cpu.dcache.demandMshrMisses::total        29839                       # number of demand (read+write) MSHR misses (Count)
system.cpu.dcache.overallMshrMisses::cpu.data        29839                       # number of overall MSHR misses (Count)
system.cpu.dcache.overallMshrMisses::total        29839                       # number of overall MSHR misses (Count)
system.cpu.dcache.demandMshrMissLatency::cpu.data    417254499                       # number of demand (read+write) MSHR miss ticks (Tick)
system.cpu.dcache.demandMshrMissLatency::total    417254499                       # number of demand (read+write) MSHR miss ticks (Tick)
system.cpu.dcache.overallMshrMissLatency::cpu.data    417254499                       # number of overall MSHR miss ticks (Tick)
system.cpu.dcache.overallMshrMissLatency::total    417254499                       # number of overall MSHR miss ticks (Tick)
system.cpu.dcache.demandMshrMissRate::cpu.data     0.001767                       # mshr miss ratio for demand accesses (Ratio)
system.cpu.dcache.demandMshrMissRate::total     0.001767                       # mshr miss ratio for demand accesses (Ratio)
system.cpu.dcache.overallMshrMissRate::cpu.data     0.001767                       # mshr miss ratio for overall accesses (Ratio)
system.cpu.dcache.overallMshrMissRate::total     0.001767                       # mshr miss ratio for overall accesses (Ratio)
system.cpu.dcache.demandAvgMshrMissLatency::cpu.data 13983.528235                       # average overall mshr miss latency ((Tick/Count))
system.cpu.dcache.demandAvgMshrMissLatency::total 13983.528235                       # average overall mshr miss latency ((Tick/Count))
system.cpu.dcache.overallAvgMshrMissLatency::cpu.data 13983.528235                       # average overall mshr miss latency ((Tick/Count))
system.cpu.dcache.overallAvgMshrMissLatency::total 13983.528235                       # average overall mshr miss latency ((Tick/Count))
system.cpu.dcache.replacements                  29839                       # number of replacements (Count)
system.cpu.dcache.ReadReq.hits::cpu.data     13901028                       # number of ReadReq hits (Count)
system.cpu.dcache.ReadReq.hits::total        13901028                       # number of ReadReq hits (Count)
system.cpu.dcache.ReadReq.misses::cpu.data        84135                       # number of ReadReq misses (Count)
system.cpu.dcache.ReadReq.misses::total         84135                       # number of ReadReq misses (Count)
system.cpu.dcache.ReadReq.missLatency::cpu.data    846220000                       # number of ReadReq miss ticks (Tick)
system.cpu.dcache.ReadReq.missLatency::total    846220000                       # number of ReadReq miss ticks (Tick)
system.cpu.dcache.ReadReq.accesses::cpu.data     13985163                       # number of ReadReq accesses(hits+misses) (Count)
system.cpu.dcache.ReadReq.accesses::total     13985163                       # number of ReadReq accesses(hits+misses) (Count)
system.cpu.dcache.ReadReq.missRate::cpu.data     0.006016                       # miss rate for ReadReq accesses (Ratio)
system.cpu.dcache.ReadReq.missRate::total     0.006016                       # miss rate for ReadReq accesses (Ratio)
system.cpu.dcache.ReadReq.avgMissLatency::cpu.data 10057.883164                       # average ReadReq miss latency ((Tick/Count))
system.cpu.dcache.ReadReq.avgMissLatency::total 10057.883164                       # average ReadReq miss latency ((Tick/Count))
system.cpu.dcache.ReadReq.mshrHits::cpu.data        61082                       # number of ReadReq MSHR hits (Count)
system.cpu.dcache.ReadReq.mshrHits::total        61082                       # number of ReadReq MSHR hits (Count)
system.cpu.dcache.ReadReq.mshrMisses::cpu.data        23053                       # number of ReadReq MSHR misses (Count)
system.cpu.dcache.ReadReq.mshrMisses::total        23053                       # number of ReadReq MSHR misses (Count)
system.cpu.dcache.ReadReq.mshrMissLatency::cpu.data    278677500                       # number of ReadReq MSHR miss ticks (Tick)
system.cpu.dcache.ReadReq.mshrMissLatency::total    278677500                       # number of ReadReq MSHR miss ticks (Tick)
system.cpu.dcache.ReadReq.mshrMissRate::cpu.data     0.001648                       # mshr miss rate for ReadReq accesses (Ratio)
system.cpu.dcache.ReadReq.mshrMissRate::total     0.001648                       # mshr miss rate for ReadReq accesses (Ratio)
system.cpu.dcache.ReadReq.avgMshrMissLatency::cpu.data 12088.556804                       # average ReadReq mshr miss latency ((Tick/Count))
system.cpu.dcache.ReadReq.avgMshrMissLatency::total 12088.556804                       # average ReadReq mshr miss latency ((Tick/Count))
system.cpu.dcache.WriteReq.hits::cpu.data      2892046                       # number of WriteReq hits (Count)
system.cpu.dcache.WriteReq.hits::total        2892046                       # number of WriteReq hits (Count)
system.cpu.dcache.WriteReq.misses::cpu.data         6811                       # number of WriteReq misses (Count)
system.cpu.dcache.WriteReq.misses::total         6811                       # number of WriteReq misses (Count)
system.cpu.dcache.WriteReq.missLatency::cpu.data    145569499                       # number of WriteReq miss ticks (Tick)
system.cpu.dcache.WriteReq.missLatency::total    145569499                       # number of WriteReq miss ticks (Tick)
system.cpu.dcache.WriteReq.accesses::cpu.data      2898857                       # number of WriteReq accesses(hits+misses) (Count)
system.cpu.dcache.WriteReq.accesses::total      2898857                       # number of WriteReq accesses(hits+misses) (Count)
system.cpu.dcache.WriteReq.missRate::cpu.data     0.002350                       # miss rate for WriteReq accesses (Ratio)
system.cpu.dcache.WriteReq.missRate::total     0.002350                       # miss rate for WriteReq accesses (Ratio)
system.cpu.dcache.WriteReq.avgMissLatency::cpu.data 21372.705770                       # average WriteReq miss latency ((Tick/Count))
system.cpu.dcache.WriteReq.avgMissLatency::total 21372.705770                       # average WriteReq miss latency ((Tick/Count))
system.cpu.dcache.WriteReq.mshrHits::cpu.data           25                       # number of WriteReq MSHR hits (Count)
system.cpu.dcache.WriteReq.mshrHits::total           25                       # number of WriteReq MSHR hits (Count)
system.cpu.dcache.WriteReq.mshrMisses::cpu.data         6786                       # number of WriteReq MSHR misses (Count)
system.cpu.dcache.WriteReq.mshrMisses::total         6786                       # number of WriteReq MSHR misses (Count)
system.cpu.dcache.WriteReq.mshrMissLatency::cpu.data    138576999                       # number of WriteReq MSHR miss ticks (Tick)
system.cpu.dcache.WriteReq.mshrMissLatency::total    138576999                       # number of WriteReq MSHR miss ticks (Tick)
system.cpu.dcache.WriteReq.mshrMissRate::cpu.data     0.002341                       # mshr miss rate for WriteReq accesses (Ratio)
system.cpu.dcache.WriteReq.mshrMissRate::total     0.002341                       # mshr miss rate for WriteReq accesses (Ratio)
system.cpu.dcache.WriteReq.avgMshrMissLatency::cpu.data 20421.013705                       # average WriteReq mshr miss latency ((Tick/Count))
system.cpu.dcache.WriteReq.avgMshrMissLatency::total 20421.013705                       # average WriteReq mshr miss latency ((Tick/Count))
system.cpu.dcache.power_state.pwrStateResidencyTicks::UNDEFINED  14536863000                       # Cumulative time (in ticks) in various power states (Tick)
system.cpu.dcache.tags.tagsInUse                   64                       # Average ticks per tags in use ((Tick/Count))
system.cpu.dcache.tags.totalRefs             16770980                       # Total number of references to valid blocks. (Count)
system.cpu.dcache.tags.sampledRefs              29839                       # Sample count of references to valid blocks. (Count)
system.cpu.dcache.tags.avgRefs             562.048996                       # Average number of references to valid blocks. ((Count/Count))
system.cpu.dcache.tags.warmupTick            10946500                       # The tick when the warmup percentage was hit. (Tick)
system.cpu.dcache.tags.occupancies::cpu.data           64                       # Average occupied blocks per tick, per requestor ((Count/Tick))
system.cpu.dcache.tags.avgOccs::cpu.data            1                       # Average percentage of cache occupancy ((Ratio/Tick))
system.cpu.dcache.tags.avgOccs::total               1                       # Average percentage of cache occupancy ((Ratio/Tick))
system.cpu.dcache.tags.occupanciesTaskId::1024           64                       # Occupied blocks per task id (Count)
system.cpu.dcache.tags.ageTaskId_1024::0           36                       # Occupied blocks per task id, per block age (Count)
system.cpu.dcache.tags.ageTaskId_1024::1           18                       # Occupied blocks per task id, per block age (Count)
system.cpu.dcache.tags.ageTaskId_1024::2           10                       # Occupied blocks per task id, per block age (Count)
system.cpu.dcache.tags.ratioOccsTaskId::1024            1                       # Ratio of occupied blocks and all blocks, per task id (Ratio)
system.cpu.dcache.tags.tagAccesses           33797879                       # Number of tag accesses (Count)
system.cpu.dcache.tags.dataAccesses          33797879                       # Number of data accesses (Count)
system.cpu.dcache.tags.power_state.pwrStateResidencyTicks::UNDEFINED  14536863000                       # Cumulative time (in ticks) in various power states (Tick)
system.cpu.decode.idleCycles                  4877982                       # Number of cycles decode is idle (Cycle)
system.cpu.decode.blockedCycles               8053662                       # Number of cycles decode is blocked (Cycle)
system.cpu.decode.runCycles                  11208091                       # Number of cycles decode is running (Cycle)
system.cpu.decode.unblockCycles               2067171                       # Number of cycles decode is unblocking (Cycle)
system.cpu.decode.squashCycles                 567388                       # Number of cycles decode is squashing (Cycle)
system.cpu.decode.branchResolved              4322988                       # Number of times decode resolved a branch (Count)
system.cpu.decode.branchMispred                    49                       # Number of times decode detected a branch misprediction (Count)
system.cpu.decode.decodedInsts               91054879                       # Number of instructions handled by decode (Count)
system.cpu.decode.squashedInsts                   155                       # Number of squashed instructions handled by decode (Count)
system.cpu.fetch.icacheStallCycles            6329895                       # Number of cycles fetch is stalled on an Icache miss (Cycle)
system.cpu.fetch.insts                       63809423                       # Number of instructions fetch has processed (Count)
system.cpu.fetch.branches                     7185088                       # Number of branches that fetch encountered (Count)
system.cpu.fetch.predictedBranches            4971446                       # Number of branches that fetch has predicted taken (Count)
system.cpu.fetch.cycles                      19876889                       # Number of cycles fetch has run and was not squashing or blocked (Cycle)
system.cpu.fetch.squashCycles                 1134874                       # Number of cycles fetch has spent squashing (Cycle)
system.cpu.fetch.miscStallCycles                    2                       # Number of cycles fetch has spent waiting on interrupts, or bad addresses, or out of MSHRs (Cycle)
system.cpu.fetch.pendingTrapStallCycles            71                       # Number of stall cycles due to pending traps (Cycle)
system.cpu.fetch.cacheLines                   6056061                       # Number of cache lines fetched (Count)
system.cpu.fetch.icacheSquashes                147295                       # Number of outstanding Icache misses that were squashed (Count)
system.cpu.fetch.nisnDist::samples           26774294                       # Number of instructions fetched each cycle (Total) (Count)
system.cpu.fetch.nisnDist::mean              3.623113                       # Number of instructions fetched each cycle (Total) (Count)
system.cpu.fetch.nisnDist::stdev             3.498010                       # Number of instructions fetched each cycle (Total) (Count)
system.cpu.fetch.nisnDist::underflows               0      0.00%      0.00% # Number of instructions fetched each cycle (Total) (Count)
system.cpu.fetch.nisnDist::0                 10881703     40.64%     40.64% # Number of instructions fetched each cycle (Total) (Count)
system.cpu.fetch.nisnDist::1                   596117      2.23%     42.87% # Number of instructions fetched each cycle (Total) (Count)
system.cpu.fetch.nisnDist::2                   854175      3.19%     46.06% # Number of instructions fetched each cycle (Total) (Count)
system.cpu.fetch.nisnDist::3                  2109863      7.88%     53.94% # Number of instructions fetched each cycle (Total) (Count)
system.cpu.fetch.nisnDist::4                  1366778      5.10%     59.04% # Number of instructions fetched each cycle (Total) (Count)
system.cpu.fetch.nisnDist::5                   521208      1.95%     60.99% # Number of instructions fetched each cycle (Total) (Count)
system.cpu.fetch.nisnDist::6                   789850      2.95%     63.94% # Number of instructions fetched each cycle (Total) (Count)
system.cpu.fetch.nisnDist::7                  1676826      6.26%     70.20% # Number of instructions fetched each cycle (Total) (Count)
system.cpu.fetch.nisnDist::8                  7977774     29.80%    100.00% # Number of instructions fetched each cycle (Total) (Count)
system.cpu.fetch.nisnDist::overflows                0      0.00%    100.00% # Number of instructions fetched each cycle (Total) (Count)
system.cpu.fetch.nisnDist::min_value                0                       # Number of instructions fetched each cycle (Total) (Count)
system.cpu.fetch.nisnDist::max_value                8                       # Number of instructions fetched each cycle (Total) (Count)
system.cpu.fetch.nisnDist::total             26774294                       # Number of instructions fetched each cycle (Total) (Count)
system.cpu.fetch.branchRate                  0.267628                       # Number of branch fetches per cycle (Ratio)
system.cpu.fetch.rate                        2.376752                       # Number of inst fetches per cycle ((Count/Cycle))
system.cpu.icache.demandHits::cpu.inst        6054604                       # number of demand (read+write) hits (Count)
system.cpu.icache.demandHits::total           6054604                       # number of demand (read+write) hits (Count)
system.cpu.icache.overallHits::cpu.inst       6054604                       # number of overall hits (Count)
system.cpu.icache.overallHits::total          6054604                       # number of overall hits (Count)
system.cpu.icache.demandMisses::cpu.inst         1457                       # number of demand (read+write) misses (Count)
system.cpu.icache.demandMisses::total            1457                       # number of demand (read+write) misses (Count)
system.cpu.icache.overallMisses::cpu.inst         1457                       # number of overall misses (Count)
system.cpu.icache.overallMisses::total           1457                       # number of overall misses (Count)
system.cpu.icache.demandMissLatency::cpu.inst     70483500                       # number of demand (read+write) miss ticks (Tick)
system.cpu.icache.demandMissLatency::total     70483500                       # number of demand (read+write) miss ticks (Tick)
system.cpu.icache.overallMissLatency::cpu.inst     70483500                       # number of overall miss ticks (Tick)
system.cpu.icache.overallMissLatency::total     70483500                       # number of overall miss ticks (Tick)
system.cpu.icache.demandAccesses::cpu.inst      6056061                       # number of demand (read+write) accesses (Count)
system.cpu.icache.demandAccesses::total       6056061                       # number of demand (read+write) accesses (Count)
system.cpu.icache.overallAccesses::cpu.inst      6056061                       # number of overall (read+write) accesses (Count)
system.cpu.icache.overallAccesses::total      6056061                       # number of overall (read+write) accesses (Count)
system.cpu.icache.demandMissRate::cpu.inst     0.000241                       # miss rate for demand accesses (Ratio)
system.cpu.icache.demandMissRate::total      0.000241                       # miss rate for demand accesses (Ratio)
system.cpu.icache.overallMissRate::cpu.inst     0.000241                       # miss rate for overall accesses (Ratio)
system.cpu.icache.overallMissRate::total     0.000241                       # miss rate for overall accesses (Ratio)
system.cpu.icache.demandAvgMissLatency::cpu.inst 48375.772135                       # average overall miss latency in ticks ((Tick/Count))
system.cpu.icache.demandAvgMissLatency::total 48375.772135                       # average overall miss latency in ticks ((Tick/Count))
system.cpu.icache.overallAvgMissLatency::cpu.inst 48375.772135                       # average overall miss latency ((Tick/Count))
system.cpu.icache.overallAvgMissLatency::total 48375.772135                       # average overall miss latency ((Tick/Count))
system.cpu.icache.blockedCycles::no_mshrs            0                       # number of cycles access was blocked (Cycle)
system.cpu.icache.blockedCycles::no_targets            0                       # number of cycles access was blocked (Cycle)
system.cpu.icache.blockedCauses::no_mshrs            0                       # number of times access was blocked (Count)
system.cpu.icache.blockedCauses::no_targets            0                       # number of times access was blocked (Count)
system.cpu.icache.avgBlocked::no_mshrs            nan                       # average number of cycles each access was blocked ((Cycle/Count))
system.cpu.icache.avgBlocked::no_targets          nan                       # average number of cycles each access was blocked ((Cycle/Count))
system.cpu.icache.demandMshrHits::cpu.inst          140                       # number of demand (read+write) MSHR hits (Count)
system.cpu.icache.demandMshrHits::total           140                       # number of demand (read+write) MSHR hits (Count)
system.cpu.icache.overallMshrHits::cpu.inst          140                       # number of overall MSHR hits (Count)
system.cpu.icache.overallMshrHits::total          140                       # number of overall MSHR hits (Count)
system.cpu.icache.demandMshrMisses::cpu.inst         1317                       # number of demand (read+write) MSHR misses (Count)
system.cpu.icache.demandMshrMisses::total         1317                       # number of demand (read+write) MSHR misses (Count)
system.cpu.icache.overallMshrMisses::cpu.inst         1317                       # number of overall MSHR misses (Count)
system.cpu.icache.overallMshrMisses::total         1317                       # number of overall MSHR misses (Count)
system.cpu.icache.demandMshrMissLatency::cpu.inst     62517000                       # number of demand (read+write) MSHR miss ticks (Tick)
system.cpu.icache.demandMshrMissLatency::total     62517000                       # number of demand (read+write) MSHR miss ticks (Tick)
system.cpu.icache.overallMshrMissLatency::cpu.inst     62517000                       # number of overall MSHR miss ticks (Tick)
system.cpu.icache.overallMshrMissLatency::total     62517000                       # number of overall MSHR miss ticks (Tick)
system.cpu.icache.demandMshrMissRate::cpu.inst     0.000217                       # mshr miss ratio for demand accesses (Ratio)
system.cpu.icache.demandMshrMissRate::total     0.000217                       # mshr miss ratio for demand accesses (Ratio)
system.cpu.icache.overallMshrMissRate::cpu.inst     0.000217                       # mshr miss ratio for overall accesses (Ratio)
system.cpu.icache.overallMshrMissRate::total     0.000217                       # mshr miss ratio for overall accesses (Ratio)
system.cpu.icache.demandAvgMshrMissLatency::cpu.inst 47469.248292                       # average overall mshr miss latency ((Tick/Count))
system.cpu.icache.demandAvgMshrMissLatency::total 47469.248292                       # average overall mshr miss latency ((Tick/Count))
system.cpu.icache.overallAvgMshrMissLatency::cpu.inst 47469.248292                       # average overall mshr miss latency ((Tick/Count))
system.cpu.icache.overallAvgMshrMissLatency::total 47469.248292                       # average overall mshr miss latency ((Tick/Count))
system.cpu.icache.replacements                   1317                       # number of replacements (Count)
system.cpu.icache.ReadReq.hits::cpu.inst      6054604                       # number of ReadReq hits (Count)
system.cpu.icache.ReadReq.hits::total         6054604                       # number of ReadReq hits (Count)
system.cpu.icache.ReadReq.misses::cpu.inst         1457                       # number of ReadReq misses (Count)
system.cpu.icache.ReadReq.misses::total          1457                       # number of ReadReq misses (Count)
system.cpu.icache.ReadReq.missLatency::cpu.inst     70483500                       # number of ReadReq miss ticks (Tick)
system.cpu.icache.ReadReq.missLatency::total     70483500                       # number of ReadReq miss ticks (Tick)
system.cpu.icache.ReadReq.accesses::cpu.inst      6056061                       # number of ReadReq accesses(hits+misses) (Count)
system.cpu.icache.ReadReq.accesses::total      6056061                       # number of ReadReq accesses(hits+misses) (Count)
system.cpu.icache.ReadReq.missRate::cpu.inst     0.000241                       # miss rate for ReadReq accesses (Ratio)
system.cpu.icache.ReadReq.missRate::total     0.000241                       # miss rate for ReadReq accesses (Ratio)
system.cpu.icache.ReadReq.avgMissLatency::cpu.inst 48375.772135                       # average ReadReq miss latency ((Tick/Count))
system.cpu.icache.ReadReq.avgMissLatency::total 48375.772135                       # average ReadReq miss latency ((Tick/Count))
system.cpu.icache.ReadReq.mshrHits::cpu.inst          140                       # number of ReadReq MSHR hits (Count)
system.cpu.icache.ReadReq.mshrHits::total          140                       # number of ReadReq MSHR hits (Count)
system.cpu.icache.ReadReq.mshrMisses::cpu.inst         1317                       # number of ReadReq MSHR misses (Count)
system.cpu.icache.ReadReq.mshrMisses::total         1317                       # number of ReadReq MSHR misses (Count)
system.cpu.icache.ReadReq.mshrMissLatency::cpu.inst     62517000                       # number of ReadReq MSHR miss ticks (Tick)
system.cpu.icache.ReadReq.mshrMissLatency::total     62517000                       # number of ReadReq MSHR miss ticks (Tick)
system.cpu.icache.ReadReq.mshrMissRate::cpu.inst     0.000217                       # mshr miss rate for ReadReq accesses (Ratio)
system.cpu.icache.ReadReq.mshrMissRate::total     0.000217                       # mshr miss rate for ReadReq accesses (Ratio)
system.cpu.icache.ReadReq.avgMshrMissLatency::cpu.inst 47469.248292                       # average ReadReq mshr miss latency ((Tick/Count))
system.cpu.icache.ReadReq.avgMshrMissLatency::total 47469.248292                       # average ReadReq mshr miss latency ((Tick/Count))
system.cpu.icache.power_state.pwrStateResidencyTicks::UNDEFINED  14536863000                       # Cumulative time (in ticks) in various power states (Tick)
system.cpu.icache.tags.tagsInUse            63.939498                       # Average ticks per tags in use ((Tick/Count))
system.cpu.icache.tags.totalRefs              5904662                       # Total number of references to valid blocks. (Count)
system.cpu.icache.tags.sampledRefs               1318                       # Sample count of references to valid blocks. (Count)
system.cpu.icache.tags.avgRefs            4480.016692                       # Average number of references to valid blocks. ((Count/Count))
system.cpu.icache.tags.warmupTick             6628000                       # The tick when the warmup percentage was hit. (Tick)
system.cpu.icache.tags.occupancies::cpu.inst    63.939498                       # Average occupied blocks per tick, per requestor ((Count/Tick))
system.cpu.icache.tags.avgOccs::cpu.inst     0.999055                       # Average percentage of cache occupancy ((Ratio/Tick))
system.cpu.icache.tags.avgOccs::total        0.999055                       # Average percentage of cache occupancy ((Ratio/Tick))
system.cpu.icache.tags.occupanciesTaskId::1024           64                       # Occupied blocks per task id (Count)
system.cpu.icache.tags.ageTaskId_1024::0           42                       # Occupied blocks per task id, per block age (Count)
system.cpu.icache.tags.ageTaskId_1024::2            1                       # Occupied blocks per task id, per block age (Count)
system.cpu.icache.tags.ageTaskId_1024::4           21                       # Occupied blocks per task id, per block age (Count)
system.cpu.icache.tags.ratioOccsTaskId::1024            1                       # Ratio of occupied blocks and all blocks, per task id (Ratio)
system.cpu.icache.tags.tagAccesses           12113440                       # Number of tag accesses (Count)
system.cpu.icache.tags.dataAccesses          12113440                       # Number of data accesses (Count)
system.cpu.icache.tags.power_state.pwrStateResidencyTicks::UNDEFINED  14536863000                       # Cumulative time (in ticks) in various power states (Tick)
system.cpu.iew.idleCycles                           0                       # Number of cycles IEW is idle (Cycle)
system.cpu.iew.squashCycles                    567388                       # Number of cycles IEW is squashing (Cycle)
system.cpu.iew.blockCycles                    5445946                       # Number of cycles IEW is blocking (Cycle)
system.cpu.iew.unblockCycles                     6259                       # Number of cycles IEW is unblocking (Cycle)
system.cpu.iew.dispatchedInsts               83945607                       # Number of instructions dispatched to IQ (Count)
system.cpu.iew.dispSquashedInsts                  328                       # Number of squashed instructions skipped by dispatch (Count)
system.cpu.iew.dispLoadInsts                 26987818                       # Number of dispatched load instructions (Count)
system.cpu.iew.dispStoreInsts                 6243054                       # Number of dispatched store instructions (Count)
system.cpu.iew.dispNonSpecInsts                     1                       # Number of dispatched non-speculative instructions (Count)
system.cpu.iew.iqFullEvents                      5487                       # Number of times the IQ has become full, causing a stall (Count)
system.cpu.iew.lsqFullEvents                        0                       # Number of times the LSQ has become full, causing a stall (Count)
system.cpu.iew.memOrderViolationEvents           1237                       # Number of memory order violations (Count)
system.cpu.iew.predictedTakenIncorrect         356829                       # Number of branches that were predicted taken incorrectly (Count)
system.cpu.iew.predictedNotTakenIncorrect       298746                       # Number of branches that were predicted not taken incorrectly (Count)
system.cpu.iew.branchMispredicts               655575                       # Number of branch mispredicts detected at execute (Count)
system.cpu.iew.instsToCommit                 65716761                       # Cumulative count of insts sent to commit (Count)
system.cpu.iew.writebackCount                65099386                       # Cumulative count of insts written-back (Count)
system.cpu.iew.producerInst                  55085996                       # Number of instructions producing a value (Count)
system.cpu.iew.consumerInst                  66331603                       # Number of instructions consuming a value (Count)
system.cpu.iew.wbRate                        2.424800                       # Insts written-back per cycle ((Count/Cycle))
system.cpu.iew.wbFanout                      0.830464                       # Average fanout of values written-back ((Count/Count))
system.cpu.interrupts.clk_domain.clock           8000                       # Clock period in ticks (Tick)
system.cpu.lsq0.forwLoads                     7854436                       # Number of loads that had data forwarded from stores (Count)
system.cpu.lsq0.squashedLoads                15028929                       # Number of loads squashed (Count)
system.cpu.lsq0.ignoredResponses                22874                       # Number of memory responses ignored because the instruction is squashed (Count)
system.cpu.lsq0.memOrderViolation                1237                       # Number of memory ordering violations (Count)
system.cpu.lsq0.squashedStores                3344198                       # Number of stores squashed (Count)
system.cpu.lsq0.rescheduledLoads                   14                       # Number of loads that were rescheduled (Count)
system.cpu.lsq0.blockedByCache                     77                       # Number of times an access to memory failed due to the cache being blocked (Count)
system.cpu.lsq0.loadToUse::samples           11958887                       # Distribution of cycle latency between the first time a load is issued and its completion (Unspecified)
system.cpu.lsq0.loadToUse::mean              2.928066                       # Distribution of cycle latency between the first time a load is issued and its completion (Unspecified)
system.cpu.lsq0.loadToUse::stdev             1.511156                       # Distribution of cycle latency between the first time a load is issued and its completion (Unspecified)
system.cpu.lsq0.loadToUse::0-9               11909268     99.59%     99.59% # Distribution of cycle latency between the first time a load is issued and its completion (Unspecified)
system.cpu.lsq0.loadToUse::10-19                12787      0.11%     99.69% # Distribution of cycle latency between the first time a load is issued and its completion (Unspecified)
system.cpu.lsq0.loadToUse::20-29                36552      0.31%    100.00% # Distribution of cycle latency between the first time a load is issued and its completion (Unspecified)
system.cpu.lsq0.loadToUse::30-39                  121      0.00%    100.00% # Distribution of cycle latency between the first time a load is issued and its completion (Unspecified)
system.cpu.lsq0.loadToUse::40-49                   91      0.00%    100.00% # Distribution of cycle latency between the first time a load is issued and its completion (Unspecified)
system.cpu.lsq0.loadToUse::50-59                   33      0.00%    100.00% # Distribution of cycle latency between the first time a load is issued and its completion (Unspecified)
system.cpu.lsq0.loadToUse::60-69                   11      0.00%    100.00% # Distribution of cycle latency between the first time a load is issued and its completion (Unspecified)
system.cpu.lsq0.loadToUse::120-129                  4      0.00%    100.00% # Distribution of cycle latency between the first time a load is issued and its completion (Unspecified)
system.cpu.lsq0.loadToUse::130-139                  3      0.00%    100.00% # Distribution of cycle latency between the first time a load is issued and its completion (Unspecified)
system.cpu.lsq0.loadToUse::140-149                  1      0.00%    100.00% # Distribution of cycle latency between the first time a load is issued and its completion (Unspecified)
system.cpu.lsq0.loadToUse::160-169                 14      0.00%    100.00% # Distribution of cycle latency between the first time a load is issued and its completion (Unspecified)
system.cpu.lsq0.loadToUse::170-179                  2      0.00%    100.00% # Distribution of cycle latency between the first time a load is issued and its completion (Unspecified)
system.cpu.lsq0.loadToUse::min_value                2                       # Distribution of cycle latency between the first time a load is issued and its completion (Unspecified)
system.cpu.lsq0.loadToUse::max_value              171                       # Distribution of cycle latency between the first time a load is issued and its completion (Unspecified)
system.cpu.lsq0.loadToUse::total             11958887                       # Distribution of cycle latency between the first time a load is issued and its completion (Unspecified)
system.cpu.mmu.dtb.rdAccesses                21839633                       # TLB accesses on read requests (Count)
system.cpu.mmu.dtb.wrAccesses                 4162678                       # TLB accesses on write requests (Count)
system.cpu.mmu.dtb.rdMisses                        16                       # TLB misses on read requests (Count)
system.cpu.mmu.dtb.wrMisses                         0                       # TLB misses on write requests (Count)
system.cpu.mmu.dtb.walker.power_state.pwrStateResidencyTicks::UNDEFINED  14536863000                       # Cumulative time (in ticks) in various power states (Tick)
system.cpu.mmu.itb.rdAccesses                       0                       # TLB accesses on read requests (Count)
system.cpu.mmu.itb.wrAccesses                 6056079                       # TLB accesses on write requests (Count)
system.cpu.mmu.itb.rdMisses                         0                       # TLB misses on read requests (Count)
system.cpu.mmu.itb.wrMisses                        18                       # TLB misses on write requests (Count)
system.cpu.mmu.itb.walker.power_state.pwrStateResidencyTicks::UNDEFINED  14536863000                       # Cumulative time (in ticks) in various power states (Tick)
system.cpu.power_state.pwrStateResidencyTicks::ON  14536863000                       # Cumulative time (in ticks) in various power states (Tick)
system.cpu.rename.squashCycles                 567388                       # Number of cycles rename is squashing (Cycle)
system.cpu.rename.idleCycles                  5826723                       # Number of cycles rename is idle (Cycle)
system.cpu.rename.blockCycles                 5618720                       # Number of cycles rename is blocking (Cycle)
system.cpu.rename.serializeStallCycles              0                       # count of cycles rename stalled for serializing inst (Cycle)
system.cpu.rename.runCycles                  12142449                       # Number of cycles rename is running (Cycle)
system.cpu.rename.unblockCycles               2619014                       # Number of cycles rename is unblocking (Cycle)
system.cpu.rename.renamedInsts               88594531                       # Number of instructions processed by rename (Count)
system.cpu.rename.ROBFullEvents                   978                       # Number of times rename has blocked due to ROB full (Count)
system.cpu.rename.IQFullEvents                2093621                       # Number of times rename has blocked due to IQ full (Count)
system.cpu.rename.SQFullEvents                   6655                       # Number of times rename has blocked due to SQ full (Count)
system.cpu.rename.renamedOperands           150784793                       # Number of destination operands rename has renamed (Count)
system.cpu.rename.lookups                   297480129                       # Number of register rename lookups that rename has made (Count)
system.cpu.rename.intLookups                109625282                       # Number of integer rename lookups (Count)
system.cpu.rename.fpLookups                      1251                       # Number of floating rename lookups (Count)
system.cpu.rename.committedMaps              66331070                       # Number of HB maps that are committed (Count)
system.cpu.rename.undoneMaps                 84453718                       # Number of HB maps that are undone due to squashing (Count)
system.cpu.rename.serializing                       0                       # count of serializing insts renamed (Count)
[...]
system.mem_ctrls.dram.numReads::cpu.inst          790                       # Number of read requests responded to by this memory (Count)
system.mem_ctrls.dram.numReads::cpu.data         1377                       # Number of read requests responded to by this memory (Count)
system.mem_ctrls.dram.numReads::total            2167                       # Number of read requests responded to by this memory (Count)
system.mem_ctrls.dram.numWrites::writebacks         1303                       # Number of write requests responded to by this memory (Count)
system.mem_ctrls.dram.numWrites::total           1303                       # Number of write requests responded to by this memory (Count)
system.mem_ctrls.dram.bwRead::cpu.inst        3765066                       # Total read bandwidth from this memory ((Byte/Second))
system.mem_ctrls.dram.bwRead::cpu.data        6562652                       # Total read bandwidth from this memory ((Byte/Second))
system.mem_ctrls.dram.bwRead::total          10327718                       # Total read bandwidth from this memory ((Byte/Second))
system.mem_ctrls.dram.bwInstRead::cpu.inst      3765066                       # Instruction read bandwidth from this memory ((Byte/Second))
system.mem_ctrls.dram.bwInstRead::total       3765066                       # Instruction read bandwidth from this memory ((Byte/Second))
system.mem_ctrls.dram.bwWrite::writebacks      6209975                       # Write bandwidth from this memory ((Byte/Second))
system.mem_ctrls.dram.bwWrite::total          6209975                       # Write bandwidth from this memory ((Byte/Second))
system.mem_ctrls.dram.bwTotal::writebacks      6209975                       # Total bandwidth to/from this memory ((Byte/Second))
system.mem_ctrls.dram.bwTotal::cpu.inst       3765066                       # Total bandwidth to/from this memory ((Byte/Second))
system.mem_ctrls.dram.bwTotal::cpu.data       6562652                       # Total bandwidth to/from this memory ((Byte/Second))
system.mem_ctrls.dram.bwTotal::total         16537693                       # Total bandwidth to/from this memory ((Byte/Second))
system.mem_ctrls.dram.readBursts                 1521                       # Number of DRAM read bursts (Count)
system.mem_ctrls.dram.writeBursts                1301                       # Number of DRAM write bursts (Count)
system.mem_ctrls.dram.perBankRdBursts::0          183                       # Per bank write bursts (Count)
system.mem_ctrls.dram.perBankRdBursts::1           10                       # Per bank write bursts (Count)
system.mem_ctrls.dram.perBankRdBursts::2           17                       # Per bank write bursts (Count)
system.mem_ctrls.dram.perBankRdBursts::3            8                       # Per bank write bursts (Count)
system.mem_ctrls.dram.perBankRdBursts::4            1                       # Per bank write bursts (Count)
system.mem_ctrls.dram.perBankRdBursts::5          115                       # Per bank write bursts (Count)
system.mem_ctrls.dram.perBankRdBursts::6          122                       # Per bank write bursts (Count)
system.mem_ctrls.dram.perBankRdBursts::7          147                       # Per bank write bursts (Count)
system.mem_ctrls.dram.perBankRdBursts::8          319                       # Per bank write bursts (Count)
system.mem_ctrls.dram.perBankRdBursts::9          289                       # Per bank write bursts (Count)
system.mem_ctrls.dram.perBankRdBursts::10          182                       # Per bank write bursts (Count)
system.mem_ctrls.dram.perBankRdBursts::11           47                       # Per bank write bursts (Count)
system.mem_ctrls.dram.perBankRdBursts::12           27                       # Per bank write bursts (Count)
system.mem_ctrls.dram.perBankRdBursts::13            2                       # Per bank write bursts (Count)
system.mem_ctrls.dram.perBankRdBursts::14            3                       # Per bank write bursts (Count)
system.mem_ctrls.dram.perBankRdBursts::15           49                       # Per bank write bursts (Count)
system.mem_ctrls.dram.perBankWrBursts::0           70                       # Per bank write bursts (Count)
system.mem_ctrls.dram.perBankWrBursts::1            2                       # Per bank write bursts (Count)
system.mem_ctrls.dram.perBankWrBursts::2            0                       # Per bank write bursts (Count)
system.mem_ctrls.dram.perBankWrBursts::3            0                       # Per bank write bursts (Count)
system.mem_ctrls.dram.perBankWrBursts::4            0                       # Per bank write bursts (Count)
system.mem_ctrls.dram.perBankWrBursts::5            0                       # Per bank write bursts (Count)
system.mem_ctrls.dram.perBankWrBursts::6            0                       # Per bank write bursts (Count)
system.mem_ctrls.dram.perBankWrBursts::7            0                       # Per bank write bursts (Count)
system.mem_ctrls.dram.perBankWrBursts::8          260                       # Per bank write bursts (Count)
system.mem_ctrls.dram.perBankWrBursts::9          528                       # Per bank write bursts (Count)
system.mem_ctrls.dram.perBankWrBursts::10          436                       # Per bank write bursts (Count)
system.mem_ctrls.dram.perBankWrBursts::11            2                       # Per bank write bursts (Count)
system.mem_ctrls.dram.perBankWrBursts::12            0                       # Per bank write bursts (Count)
system.mem_ctrls.dram.perBankWrBursts::13            0                       # Per bank write bursts (Count)
system.mem_ctrls.dram.perBankWrBursts::14            0                       # Per bank write bursts (Count)
system.mem_ctrls.dram.perBankWrBursts::15            3                       # Per bank write bursts (Count)
system.mem_ctrls.dram.totQLat                14301750                       # Total ticks spent queuing (Tick)
system.mem_ctrls.dram.totBusLat               7605000                       # Total ticks spent in databus transfers (Tick)
system.mem_ctrls.dram.totMemAccLat           42820500                       # Total ticks spent from burst creation until serviced by the DRAM (Tick)
system.mem_ctrls.dram.avgQLat                 9402.86                       # Average queueing delay per DRAM burst ((Tick/Count))
system.mem_ctrls.dram.avgBusLat               5000.00                       # Average bus latency per DRAM burst ((Tick/Count))
system.mem_ctrls.dram.avgMemAccLat           28152.86                       # Average memory access latency per DRAM burst ((Tick/Count))
system.mem_ctrls.dram.readRowHits                1170                       # Number of row buffer hits during reads (Count)
system.mem_ctrls.dram.writeRowHits               1166                       # Number of row buffer hits during writes (Count)
system.mem_ctrls.dram.readRowHitRate            76.92                       # Row buffer hit rate for reads (Ratio)
system.mem_ctrls.dram.writeRowHitRate           89.62                       # Row buffer hit rate for writes (Ratio)
system.mem_ctrls.dram.bytesPerActivate::samples          485                       # Bytes accessed per row activation (Byte)
system.mem_ctrls.dram.bytesPerActivate::mean   368.824742                       # Bytes accessed per row activation (Byte)
system.mem_ctrls.dram.bytesPerActivate::gmean   244.289399                       # Bytes accessed per row activation (Byte)
system.mem_ctrls.dram.bytesPerActivate::stdev   315.253820                       # Bytes accessed per row activation (Byte)
system.mem_ctrls.dram.bytesPerActivate::0-127          117     24.12%     24.12% # Bytes accessed per row activation (Byte)
system.mem_ctrls.dram.bytesPerActivate::128-255          102     21.03%     45.15% # Bytes accessed per row activation (Byte)
system.mem_ctrls.dram.bytesPerActivate::256-383           66     13.61%     58.76% # Bytes accessed per row activation (Byte)
system.mem_ctrls.dram.bytesPerActivate::384-511           64     13.20%     71.96% # Bytes accessed per row activation (Byte)
system.mem_ctrls.dram.bytesPerActivate::512-639           44      9.07%     81.03% # Bytes accessed per row activation (Byte)
system.mem_ctrls.dram.bytesPerActivate::640-767           18      3.71%     84.74% # Bytes accessed per row activation (Byte)
system.mem_ctrls.dram.bytesPerActivate::768-895            7      1.44%     86.19% # Bytes accessed per row activation (Byte)
system.mem_ctrls.dram.bytesPerActivate::896-1023            8      1.65%     87.84% # Bytes accessed per row activation (Byte)
system.mem_ctrls.dram.bytesPerActivate::1024-1151           59     12.16%    100.00% # Bytes accessed per row activation (Byte)
system.mem_ctrls.dram.bytesPerActivate::total          485                       # Bytes accessed per row activation (Byte)
system.mem_ctrls.dram.bytesRead                 97344                       # Total bytes read (Byte)
system.mem_ctrls.dram.bytesWritten              83264                       # Total bytes written (Byte)
system.mem_ctrls.dram.avgRdBW                7.248943                       # Average DRAM read bandwidth in MiBytes/s ((Byte/Second))
system.mem_ctrls.dram.avgWrBW                6.200443                       # Average DRAM write bandwidth in MiBytes/s ((Byte/Second))
system.mem_ctrls.dram.peakBW                 12800.00                       # Theoretical peak bandwidth in MiByte/s ((Byte/Second))
system.mem_ctrls.dram.busUtil                    0.11                       # Data bus utilization in percentage (Ratio)
system.mem_ctrls.dram.busUtilRead                0.06                       # Data bus utilization in percentage for reads (Ratio)
system.mem_ctrls.dram.busUtilWrite               0.05                       # Data bus utilization in percentage for writes (Ratio)
system.mem_ctrls.dram.pageHitRate               82.78                       # Row buffer hit rate, read and write combined (Ratio)
system.mem_ctrls.dram.power_state.pwrStateResidencyTicks::UNDEFINED  14541920500                       # Cumulative time (in ticks) in various power states (Tick)
system.mem_ctrls.dram.rank0.actEnergy         1313760                       # Energy for activate commands per rank (pJ) (Joule)
system.mem_ctrls.dram.rank0.preEnergy          679305                       # Energy for precharge commands per rank (pJ) (Joule)
system.mem_ctrls.dram.rank0.readEnergy        4998000                       # Energy for read commands per rank (pJ) (Joule)
system.mem_ctrls.dram.rank0.writeEnergy        511560                       # Energy for write commands per rank (pJ) (Joule)
system.mem_ctrls.dram.rank0.refreshEnergy 1060254000.000000                       # Energy for refresh commands per rank (pJ) (Joule)
system.mem_ctrls.dram.rank0.actBackEnergy    339836280                       # Energy for active background per rank (pJ) (Joule)
system.mem_ctrls.dram.rank0.preBackEnergy   4873246080                       # Energy for precharge background per rank (pJ) (Joule)
system.mem_ctrls.dram.rank0.actPowerDownEnergy            0                       # Energy for active power-down per rank (pJ) (Joule)
system.mem_ctrls.dram.rank0.prePowerDownEnergy            0                       # Energy for precharge power-down per rank (pJ) (Joule)
system.mem_ctrls.dram.rank0.selfRefreshEnergy            0                       # Energy for self refresh per rank (pJ) (Joule)
system.mem_ctrls.dram.rank0.totalEnergy    6280838985                       # Total energy per rank (pJ) (Joule)
system.mem_ctrls.dram.rank0.averagePower   467.716982                       # Core power per rank (mW) (Watt)
system.mem_ctrls.dram.rank0.totalIdleTime            0                       # Total Idle time Per DRAM Rank (Tick)
system.mem_ctrls.dram.rank0.pwrStateTime::IDLE  12666028500                       # Time in different power states (Tick)
system.mem_ctrls.dram.rank0.pwrStateTime::REF    448500000                       # Time in different power states (Tick)
system.mem_ctrls.dram.rank0.pwrStateTime::SREF            0                       # Time in different power states (Tick)
system.mem_ctrls.dram.rank0.pwrStateTime::PRE_PDN            0                       # Time in different power states (Tick)
system.mem_ctrls.dram.rank0.pwrStateTime::ACT    321470750                       # Time in different power states (Tick)
system.mem_ctrls.dram.rank0.pwrStateTime::ACT_PDN            0                       # Time in different power states (Tick)
system.mem_ctrls.dram.rank1.actEnergy         2463300                       # Energy for activate commands per rank (pJ) (Joule)
system.mem_ctrls.dram.rank1.preEnergy         1278915                       # Energy for precharge commands per rank (pJ) (Joule)
system.mem_ctrls.dram.rank1.readEnergy        6875820                       # Energy for read commands per rank (pJ) (Joule)
system.mem_ctrls.dram.rank1.writeEnergy       6812100                       # Energy for write commands per rank (pJ) (Joule)
system.mem_ctrls.dram.rank1.refreshEnergy 1060254000.000000                       # Energy for refresh commands per rank (pJ) (Joule)
system.mem_ctrls.dram.rank1.actBackEnergy    491130240                       # Energy for active background per rank (pJ) (Joule)
system.mem_ctrls.dram.rank1.preBackEnergy   4745642880                       # Energy for precharge background per rank (pJ) (Joule)
system.mem_ctrls.dram.rank1.actPowerDownEnergy            0                       # Energy for active power-down per rank (pJ) (Joule)
system.mem_ctrls.dram.rank1.prePowerDownEnergy            0                       # Energy for precharge power-down per rank (pJ) (Joule)
system.mem_ctrls.dram.rank1.selfRefreshEnergy            0                       # Energy for self refresh per rank (pJ) (Joule)
system.mem_ctrls.dram.rank1.totalEnergy    6314457255                       # Total energy per rank (pJ) (Joule)
system.mem_ctrls.dram.rank1.averagePower   470.220443                       # Core power per rank (mW) (Watt)
system.mem_ctrls.dram.rank1.totalIdleTime            0                       # Total Idle time Per DRAM Rank (Tick)
system.mem_ctrls.dram.rank1.pwrStateTime::IDLE  12332710750                       # Time in different power states (Tick)
system.mem_ctrls.dram.rank1.pwrStateTime::REF    448500000                       # Time in different power states (Tick)
system.mem_ctrls.dram.rank1.pwrStateTime::SREF            0                       # Time in different power states (Tick)
system.mem_ctrls.dram.rank1.pwrStateTime::PRE_PDN            0                       # Time in different power states (Tick)
system.mem_ctrls.dram.rank1.pwrStateTime::ACT    654273750                       # Time in different power states (Tick)
system.mem_ctrls.dram.rank1.pwrStateTime::ACT_PDN            0                       # Time in different power states (Tick)
system.mem_ctrls.power_state.pwrStateResidencyTicks::UNDEFINED  14541920500                       # Cumulative time (in ticks) in various power states (Tick)
system.membus.transDist::ReadResp                 855                       # Transaction distribution (Count)
system.membus.transDist::WritebackDirty          1303                       # Transaction distribution (Count)
system.membus.transDist::CleanEvict               862                       # Transaction distribution (Count)
system.membus.transDist::ReadExReq               1312                       # Transaction distribution (Count)
system.membus.transDist::ReadExResp              1312                       # Transaction distribution (Count)
system.membus.transDist::ReadSharedReq            855                       # Transaction distribution (Count)
system.membus.pktCount_system.l2cache.mem_side_port::system.mem_ctrls.port         6499                       # Packet count per connected requestor and responder (Count)
system.membus.pktCount_system.l2cache.mem_side_port::total         6499                       # Packet count per connected requestor and responder (Count)
system.membus.pktCount::total                    6499                       # Packet count per connected requestor and responder (Count)
system.membus.pktSize_system.l2cache.mem_side_port::system.mem_ctrls.port       222080                       # Cumulative packet size per connected requestor and responder (Byte)
system.membus.pktSize_system.l2cache.mem_side_port::total       222080                       # Cumulative packet size per connected requestor and responder (Byte)
system.membus.pktSize::total                   222080                       # Cumulative packet size per connected requestor and responder (Byte)
system.membus.snoops                                0                       # Total snoops (Count)
system.membus.snoopTraffic                          0                       # Total snoop traffic (Byte)
system.membus.snoopFanout::samples               2167                       # Request fanout histogram (Count)
system.membus.snoopFanout::mean                     0                       # Request fanout histogram (Count)
system.membus.snoopFanout::stdev                    0                       # Request fanout histogram (Count)
system.membus.snoopFanout::underflows               0      0.00%      0.00% # Request fanout histogram (Count)
system.membus.snoopFanout::0                     2167    100.00%    100.00% # Request fanout histogram (Count)
system.membus.snoopFanout::1                        0      0.00%    100.00% # Request fanout histogram (Count)
system.membus.snoopFanout::overflows                0      0.00%    100.00% # Request fanout histogram (Count)
system.membus.snoopFanout::min_value                0                       # Request fanout histogram (Count)
system.membus.snoopFanout::max_value                0                       # Request fanout histogram (Count)
system.membus.snoopFanout::total                 2167                       # Request fanout histogram (Count)
system.membus.power_state.pwrStateResidencyTicks::UNDEFINED  14541920500                       # Cumulative time (in ticks) in various power states (Tick)
system.membus.reqLayer2.occupancy             4772000                       # Layer occupancy (ticks) (Tick)
system.membus.reqLayer2.utilization               0.0                       # Layer utilization (Ratio)
system.membus.respLayer1.occupancy            5713500                       # Layer occupancy (ticks) (Tick)
system.membus.respLayer1.utilization              0.0                       # Layer utilization (Ratio)
system.membus.snoop_filter.totRequests           4332                       # Total number of requests made to the snoop filter. (Count)
system.membus.snoop_filter.hitSingleRequests         2165                       # Number of requests hitting in the snoop filter with a single holder of the requested data. (Count)
system.membus.snoop_filter.hitMultiRequests            0                       # Number of requests hitting in the snoop filter with multiple (>1) holders of the requested data. (Count)
system.membus.snoop_filter.totSnoops                0                       # Total number of snoops made to the snoop filter. (Count)
system.membus.snoop_filter.hitSingleSnoops            0                       # Number of snoops hitting in the snoop filter with a single holder of the requested data. (Count)
system.membus.snoop_filter.hitMultiSnoops            0                       # Number of snoops hitting in the snoop filter with multiple (>1) holders of the requested data. (Count)
system.workload.inst.arm                            0                       # number of arm instructions executed (Count)
system.workload.inst.quiesce                        0                       # number of quiesce instructions executed (Count)

---------- End Simulation Statistics   ----------
