
---------- Begin Simulation Statistics ----------
simSeconds                                   1.652311                       # Number of seconds simulated (Second)
simTicks                                 1652310991500                       # Number of ticks simulated (Tick)
finalTick                                3305017221500                       # Number of ticks from beginning of simulation (restored from checkpoints and never reset) (Tick)
simFreq                                  1000000000000                       # The number of ticks per simulated second ((Tick/Second))
hostSeconds                                   6291.72                       # Real time elapsed on the host (Second)
hostTickRate                                262616865                       # The number of ticks simulated per host second (ticks/s) ((Tick/Second))
hostMemory                                     822236                       # Number of bytes of host memory used (Byte)
simInsts                                   3185093259                       # Number of instructions simulated (Count)
simOps                                     4776160126                       # Number of ops (including micro ops) simulated (Count)
hostInstRate                                   506236                       # Simulator instruction rate (inst/s) ((Count/Second))
hostOpRate                                     759119                       # Simulator op (including micro ops) rate (op/s) ((Count/Second))
system.clk_domain.clock                          1000                       # Clock period in ticks (Tick)
system.cpu.numCycles                       3304621983                       # Number of cpu cycles simulated (Cycle)
system.cpu.numWorkItemsStarted                      0                       # Number of work items this cpu started (Count)
system.cpu.numWorkItemsCompleted                    0                       # Number of work items this cpu completed (Count)
system.cpu.numInsts                        1592492876                       # Number of instructions committed (Count)
system.cpu.numOps                          2387981602                       # Number of ops (including micro ops) committed (Count)
system.cpu.numDiscardedOps                  350349023                       # Number of ops (including micro ops) which were discarded before commit (Count)
system.cpu.numFetchSuspends                         0                       # Number of times Execute suspended instruction fetching (Count)
system.cpu.cpi                               2.075125                       # CPI: cycles per instruction ((Cycle/Count))
system.cpu.ipc                               0.481899                       # IPC: instructions per cycle ((Count/Cycle))
system.cpu.committedInstType_0::No_OpClass            3      0.00%      0.00% # Class of committed instruction (Count)
system.cpu.committedInstType_0::IntAlu     1431442739     59.94%     59.94% # Class of committed instruction (Count)
system.cpu.committedInstType_0::IntMult       9000005      0.38%     60.32% # Class of committed instruction (Count)
system.cpu.committedInstType_0::IntDiv              7      0.00%     60.32% # Class of committed instruction (Count)
system.cpu.committedInstType_0::FloatAdd            2      0.00%     60.32% # Class of committed instruction (Count)
system.cpu.committedInstType_0::FloatCmp            0      0.00%     60.32% # Class of committed instruction (Count)
system.cpu.committedInstType_0::FloatCvt            0      0.00%     60.32% # Class of committed instruction (Count)
system.cpu.committedInstType_0::FloatMult            0      0.00%     60.32% # Class of committed instruction (Count)
system.cpu.committedInstType_0::FloatMultAcc            0      0.00%     60.32% # Class of committed instruction (Count)
system.cpu.committedInstType_0::FloatDiv            0      0.00%     60.32% # Class of committed instruction (Count)
system.cpu.committedInstType_0::FloatMisc            0      0.00%     60.32% # Class of committed instruction (Count)
system.cpu.committedInstType_0::FloatSqrt            0      0.00%     60.32% # Class of committed instruction (Count)
system.cpu.committedInstType_0::SimdAdd             0      0.00%     60.32% # Class of committed instruction (Count)
system.cpu.committedInstType_0::SimdAddAcc            0      0.00%     60.32% # Class of committed instruction (Count)
system.cpu.committedInstType_0::SimdAlu             4      0.00%     60.32% # Class of committed instruction (Count)
system.cpu.committedInstType_0::SimdCmp             0      0.00%     60.32% # Class of committed instruction (Count)
system.cpu.committedInstType_0::SimdCvt             8      0.00%     60.32% # Class of committed instruction (Count)
system.cpu.committedInstType_0::SimdMisc           22      0.00%     60.32% # Class of committed instruction (Count)
system.cpu.committedInstType_0::SimdMult            0      0.00%     60.32% # Class of committed instruction (Count)
system.cpu.committedInstType_0::SimdMultAcc            0      0.00%     60.32% # Class of committed instruction (Count)
system.cpu.committedInstType_0::SimdShift            0      0.00%     60.32% # Class of committed instruction (Count)
system.cpu.committedInstType_0::SimdShiftAcc            0      0.00%     60.32% # Class of committed instruction (Count)
system.cpu.committedInstType_0::SimdDiv             0      0.00%     60.32% # Class of committed instruction (Count)
system.cpu.committedInstType_0::SimdSqrt            0      0.00%     60.32% # Class of committed instruction (Count)
system.cpu.committedInstType_0::SimdFloatAdd            0      0.00%     60.32% # Class of committed instruction (Count)
system.cpu.committedInstType_0::SimdFloatAlu            0      0.00%     60.32% # Class of committed instruction (Count)
system.cpu.committedInstType_0::SimdFloatCmp            0      0.00%     60.32% # Class of committed instruction (Count)
system.cpu.committedInstType_0::SimdFloatCvt            0      0.00%     60.32% # Class of committed instruction (Count)
system.cpu.committedInstType_0::SimdFloatDiv            0      0.00%     60.32% # Class of committed instruction (Count)
system.cpu.committedInstType_0::SimdFloatMisc            0      0.00%     60.32% # Class of committed instruction (Count)
system.cpu.committedInstType_0::SimdFloatMult            0      0.00%     60.32% # Class of committed instruction (Count)
system.cpu.committedInstType_0::SimdFloatMultAcc            0      0.00%     60.32% # Class of committed instruction (Count)
system.cpu.committedInstType_0::SimdFloatSqrt            0      0.00%     60.32% # Class of committed instruction (Count)
system.cpu.committedInstType_0::SimdReduceAdd            0      0.00%     60.32% # Class of committed instruction (Count)
system.cpu.committedInstType_0::SimdReduceAlu            0      0.00%     60.32% # Class of committed instruction (Count)
system.cpu.committedInstType_0::SimdReduceCmp            0      0.00%     60.32% # Class of committed instruction (Count)
system.cpu.committedInstType_0::SimdFloatReduceAdd            0      0.00%     60.32% # Class of committed instruction (Count)
system.cpu.committedInstType_0::SimdFloatReduceCmp            0      0.00%     60.32% # Class of committed instruction (Count)
system.cpu.committedInstType_0::SimdAes             0      0.00%     60.32% # Class of committed instruction (Count)
system.cpu.committedInstType_0::SimdAesMix            0      0.00%     60.32% # Class of committed instruction (Count)
system.cpu.committedInstType_0::SimdSha1Hash            0      0.00%     60.32% # Class of committed instruction (Count)
system.cpu.committedInstType_0::SimdSha1Hash2            0      0.00%     60.32% # Class of committed instruction (Count)
system.cpu.committedInstType_0::SimdSha256Hash            0      0.00%     60.32% # Class of committed instruction (Count)
system.cpu.committedInstType_0::SimdSha256Hash2            0      0.00%     60.32% # Class of committed instruction (Count)
system.cpu.committedInstType_0::SimdShaSigma2            0      0.00%     60.32% # Class of committed instruction (Count)
system.cpu.committedInstType_0::SimdShaSigma3            0      0.00%     60.32% # Class of committed instruction (Count)
system.cpu.committedInstType_0::SimdPredAlu            0      0.00%     60.32% # Class of committed instruction (Count)
system.cpu.committedInstType_0::MemRead     773226652     32.38%     92.70% # Class of committed instruction (Count)
system.cpu.committedInstType_0::MemWrite    174312156      7.30%    100.00% # Class of committed instruction (Count)
system.cpu.committedInstType_0::FloatMemRead            4      0.00%    100.00% # Class of committed instruction (Count)
system.cpu.committedInstType_0::FloatMemWrite            0      0.00%    100.00% # Class of committed instruction (Count)
system.cpu.committedInstType_0::IprAccess            0      0.00%    100.00% # Class of committed instruction (Count)
system.cpu.committedInstType_0::InstPrefetch            0      0.00%    100.00% # Class of committed instruction (Count)
system.cpu.committedInstType_0::total      2387981602                       # Class of committed instruction (Count)
system.cpu.branchPred.lookups                       0                       # Number of BP lookups (Count)
system.cpu.branchPred.condPredicted                 0                       # Number of conditional branches predicted (Count)
system.cpu.branchPred.condIncorrect                 0                       # Number of conditional branches incorrect (Count)
system.cpu.branchPred.BTBLookups                    0                       # Number of BTB lookups (Count)
system.cpu.branchPred.BTBHits                       0                       # Number of BTB hits (Count)
system.cpu.branchPred.BTBHitRatio                 nan                       # BTB Hit Ratio (Ratio)
system.cpu.branchPred.RASUsed                       0                       # Number of times the RAS was used to get a target. (Count)
system.cpu.branchPred.RASIncorrect                  0                       # Number of incorrect RAS predictions. (Count)
system.cpu.branchPred.indirectLookups               0                       # Number of indirect predictor lookups. (Count)
system.cpu.branchPred.indirectHits                  0                       # Number of indirect target hits. (Count)
system.cpu.branchPred.indirectMisses                0                       # Number of indirect misses. (Count)
system.cpu.branchPred.indirectMispredicted            0                       # Number of mispredicted indirect branches. (Count)
system.cpu.dcache.demandHits::cpu.data      998251225                       # number of demand (read+write) hits (Count)
system.cpu.dcache.demandHits::total         998251225                       # number of demand (read+write) hits (Count)
system.cpu.dcache.overallHits::cpu.data     998251225                       # number of overall hits (Count)
system.cpu.dcache.overallHits::total        998251225                       # number of overall hits (Count)
system.cpu.dcache.demandMisses::cpu.data      2884061                       # number of demand (read+write) misses (Count)
system.cpu.dcache.demandMisses::total         2884061                       # number of demand (read+write) misses (Count)
system.cpu.dcache.overallMisses::cpu.data      2884061                       # number of overall misses (Count)
system.cpu.dcache.overallMisses::total        2884061                       # number of overall misses (Count)
system.cpu.dcache.demandMissLatency::cpu.data  97964502500                       # number of demand (read+write) miss ticks (Tick)
system.cpu.dcache.demandMissLatency::total  97964502500                       # number of demand (read+write) miss ticks (Tick)
system.cpu.dcache.overallMissLatency::cpu.data  97964502500                       # number of overall miss ticks (Tick)
system.cpu.dcache.overallMissLatency::total  97964502500                       # number of overall miss ticks (Tick)
system.cpu.dcache.demandAccesses::cpu.data   1001135286                       # number of demand (read+write) accesses (Count)
system.cpu.dcache.demandAccesses::total    1001135286                       # number of demand (read+write) accesses (Count)
system.cpu.dcache.overallAccesses::cpu.data   1001135286                       # number of overall (read+write) accesses (Count)
system.cpu.dcache.overallAccesses::total   1001135286                       # number of overall (read+write) accesses (Count)
system.cpu.dcache.demandMissRate::cpu.data     0.002881                       # miss rate for demand accesses (Ratio)
system.cpu.dcache.demandMissRate::total      0.002881                       # miss rate for demand accesses (Ratio)
system.cpu.dcache.overallMissRate::cpu.data     0.002881                       # miss rate for overall accesses (Ratio)
system.cpu.dcache.overallMissRate::total     0.002881                       # miss rate for overall accesses (Ratio)
system.cpu.dcache.demandAvgMissLatency::cpu.data 33967.555645                       # average overall miss latency in ticks ((Tick/Count))
system.cpu.dcache.demandAvgMissLatency::total 33967.555645                       # average overall miss latency in ticks ((Tick/Count))
system.cpu.dcache.overallAvgMissLatency::cpu.data 33967.555645                       # average overall miss latency ((Tick/Count))
system.cpu.dcache.overallAvgMissLatency::total 33967.555645                       # average overall miss latency ((Tick/Count))
system.cpu.dcache.blockedCycles::no_mshrs            0                       # number of cycles access was blocked (Cycle)
system.cpu.dcache.blockedCycles::no_targets            0                       # number of cycles access was blocked (Cycle)
system.cpu.dcache.blockedCauses::no_mshrs            0                       # number of times access was blocked (Count)
system.cpu.dcache.blockedCauses::no_targets            0                       # number of times access was blocked (Count)
system.cpu.dcache.avgBlocked::no_mshrs            nan                       # average number of cycles each access was blocked ((Cycle/Count))
system.cpu.dcache.avgBlocked::no_targets          nan                       # average number of cycles each access was blocked ((Cycle/Count))
system.cpu.dcache.writebacks::writebacks      2643870                       # number of writebacks (Count)
system.cpu.dcache.writebacks::total           2643870                       # number of writebacks (Count)
system.cpu.dcache.demandMshrHits::cpu.data       100309                       # number of demand (read+write) MSHR hits (Count)
system.cpu.dcache.demandMshrHits::total        100309                       # number of demand (read+write) MSHR hits (Count)
system.cpu.dcache.overallMshrHits::cpu.data       100309                       # number of overall MSHR hits (Count)
system.cpu.dcache.overallMshrHits::total       100309                       # number of overall MSHR hits (Count)
system.cpu.dcache.demandMshrMisses::cpu.data      2783752                       # number of demand (read+write) MSHR misses (Count)
system.cpu.dcache.demandMshrMisses::total      2783752                       # number of demand (read+write) MSHR misses (Count)
system.cpu.dcache.overallMshrMisses::cpu.data      2783752                       # number of overall MSHR misses (Count)
system.cpu.dcache.overallMshrMisses::total      2783752                       # number of overall MSHR misses (Count)
system.cpu.dcache.demandMshrMissLatency::cpu.data  90499173000                       # number of demand (read+write) MSHR miss ticks (Tick)
system.cpu.dcache.demandMshrMissLatency::total  90499173000                       # number of demand (read+write) MSHR miss ticks (Tick)
system.cpu.dcache.overallMshrMissLatency::cpu.data  90499173000                       # number of overall MSHR miss ticks (Tick)
system.cpu.dcache.overallMshrMissLatency::total  90499173000                       # number of overall MSHR miss ticks (Tick)
system.cpu.dcache.demandMshrMissRate::cpu.data     0.002781                       # mshr miss ratio for demand accesses (Ratio)
system.cpu.dcache.demandMshrMissRate::total     0.002781                       # mshr miss ratio for demand accesses (Ratio)
system.cpu.dcache.overallMshrMissRate::cpu.data     0.002781                       # mshr miss ratio for overall accesses (Ratio)
system.cpu.dcache.overallMshrMissRate::total     0.002781                       # mshr miss ratio for overall accesses (Ratio)
system.cpu.dcache.demandAvgMshrMissLatency::cpu.data 32509.782840                       # average overall mshr miss latency ((Tick/Count))
system.cpu.dcache.demandAvgMshrMissLatency::total 32509.782840                       # average overall mshr miss latency ((Tick/Count))
system.cpu.dcache.overallAvgMshrMissLatency::cpu.data 32509.782840                       # average overall mshr miss latency ((Tick/Count))
system.cpu.dcache.overallAvgMshrMissLatency::total 32509.782840                       # average overall mshr miss latency ((Tick/Count))
system.cpu.dcache.replacements                2783752                       # number of replacements (Count)
system.cpu.dcache.ReadReq.hits::cpu.data    824233436                       # number of ReadReq hits (Count)
system.cpu.dcache.ReadReq.hits::total       824233436                       # number of ReadReq hits (Count)
system.cpu.dcache.ReadReq.misses::cpu.data      2589694                       # number of ReadReq misses (Count)
system.cpu.dcache.ReadReq.misses::total       2589694                       # number of ReadReq misses (Count)
system.cpu.dcache.ReadReq.missLatency::cpu.data  81562538500                       # number of ReadReq miss ticks (Tick)
system.cpu.dcache.ReadReq.missLatency::total  81562538500                       # number of ReadReq miss ticks (Tick)
system.cpu.dcache.ReadReq.accesses::cpu.data    826823130                       # number of ReadReq accesses(hits+misses) (Count)
system.cpu.dcache.ReadReq.accesses::total    826823130                       # number of ReadReq accesses(hits+misses) (Count)
system.cpu.dcache.ReadReq.missRate::cpu.data     0.003132                       # miss rate for ReadReq accesses (Ratio)
system.cpu.dcache.ReadReq.missRate::total     0.003132                       # miss rate for ReadReq accesses (Ratio)
system.cpu.dcache.ReadReq.avgMissLatency::cpu.data 31495.048643                       # average ReadReq miss latency ((Tick/Count))
system.cpu.dcache.ReadReq.avgMissLatency::total 31495.048643                       # average ReadReq miss latency ((Tick/Count))
system.cpu.dcache.ReadReq.mshrHits::cpu.data            2                       # number of ReadReq MSHR hits (Count)
system.cpu.dcache.ReadReq.mshrHits::total            2                       # number of ReadReq MSHR hits (Count)
system.cpu.dcache.ReadReq.mshrMisses::cpu.data      2589692                       # number of ReadReq MSHR misses (Count)
system.cpu.dcache.ReadReq.mshrMisses::total      2589692                       # number of ReadReq MSHR misses (Count)
system.cpu.dcache.ReadReq.mshrMissLatency::cpu.data  78972649500                       # number of ReadReq MSHR miss ticks (Tick)
system.cpu.dcache.ReadReq.mshrMissLatency::total  78972649500                       # number of ReadReq MSHR miss ticks (Tick)
system.cpu.dcache.ReadReq.mshrMissRate::cpu.data     0.003132                       # mshr miss rate for ReadReq accesses (Ratio)
system.cpu.dcache.ReadReq.mshrMissRate::total     0.003132                       # mshr miss rate for ReadReq accesses (Ratio)
system.cpu.dcache.ReadReq.avgMshrMissLatency::cpu.data 30494.996895                       # average ReadReq mshr miss latency ((Tick/Count))
system.cpu.dcache.ReadReq.avgMshrMissLatency::total 30494.996895                       # average ReadReq mshr miss latency ((Tick/Count))
system.cpu.dcache.WriteReq.hits::cpu.data    174017789                       # number of WriteReq hits (Count)
system.cpu.dcache.WriteReq.hits::total      174017789                       # number of WriteReq hits (Count)
system.cpu.dcache.WriteReq.misses::cpu.data       294367                       # number of WriteReq misses (Count)
system.cpu.dcache.WriteReq.misses::total       294367                       # number of WriteReq misses (Count)
system.cpu.dcache.WriteReq.missLatency::cpu.data  16401964000                       # number of WriteReq miss ticks (Tick)
system.cpu.dcache.WriteReq.missLatency::total  16401964000                       # number of WriteReq miss ticks (Tick)
system.cpu.dcache.WriteReq.accesses::cpu.data    174312156                       # number of WriteReq accesses(hits+misses) (Count)
system.cpu.dcache.WriteReq.accesses::total    174312156                       # number of WriteReq accesses(hits+misses) (Count)
system.cpu.dcache.WriteReq.missRate::cpu.data     0.001689                       # miss rate for WriteReq accesses (Ratio)
system.cpu.dcache.WriteReq.missRate::total     0.001689                       # miss rate for WriteReq accesses (Ratio)
system.cpu.dcache.WriteReq.avgMissLatency::cpu.data 55719.438660                       # average WriteReq miss latency ((Tick/Count))
system.cpu.dcache.WriteReq.avgMissLatency::total 55719.438660                       # average WriteReq miss latency ((Tick/Count))
system.cpu.dcache.WriteReq.mshrHits::cpu.data       100307                       # number of WriteReq MSHR hits (Count)
system.cpu.dcache.WriteReq.mshrHits::total       100307                       # number of WriteReq MSHR hits (Count)
system.cpu.dcache.WriteReq.mshrMisses::cpu.data       194060                       # number of WriteReq MSHR misses (Count)
system.cpu.dcache.WriteReq.mshrMisses::total       194060                       # number of WriteReq MSHR misses (Count)
system.cpu.dcache.WriteReq.mshrMissLatency::cpu.data  11526523500                       # number of WriteReq MSHR miss ticks (Tick)
system.cpu.dcache.WriteReq.mshrMissLatency::total  11526523500                       # number of WriteReq MSHR miss ticks (Tick)
system.cpu.dcache.WriteReq.mshrMissRate::cpu.data     0.001113                       # mshr miss rate for WriteReq accesses (Ratio)
system.cpu.dcache.WriteReq.mshrMissRate::total     0.001113                       # mshr miss rate for WriteReq accesses (Ratio)
system.cpu.dcache.WriteReq.avgMshrMissLatency::cpu.data 59396.699474                       # average WriteReq mshr miss latency ((Tick/Count))
system.cpu.dcache.WriteReq.avgMshrMissLatency::total 59396.699474                       # average WriteReq mshr miss latency ((Tick/Count))
system.cpu.dcache.power_state.pwrStateResidencyTicks::UNDEFINED 3305017221500                       # Cumulative time (in ticks) in various power states (Tick)
system.cpu.dcache.tags.tagsInUse                  512                       # Average ticks per tags in use ((Tick/Count))
system.cpu.dcache.tags.totalRefs           1001011664                       # Total number of references to valid blocks. (Count)
system.cpu.dcache.tags.sampledRefs            2783752                       # Sample count of references to valid blocks. (Count)
system.cpu.dcache.tags.avgRefs             359.590820                       # Average number of references to valid blocks. ((Count/Count))
system.cpu.dcache.tags.warmupTick           122946500                       # The tick when the warmup percentage was hit. (Tick)
system.cpu.dcache.tags.occupancies::cpu.data          512                       # Average occupied blocks per tick, per requestor ((Count/Tick))
system.cpu.dcache.tags.avgOccs::cpu.data            1                       # Average percentage of cache occupancy ((Ratio/Tick))
system.cpu.dcache.tags.avgOccs::total               1                       # Average percentage of cache occupancy ((Ratio/Tick))
system.cpu.dcache.tags.occupanciesTaskId::1024          512                       # Occupied blocks per task id (Count)
system.cpu.dcache.tags.ageTaskId_1024::0           41                       # Occupied blocks per task id, per block age (Count)
system.cpu.dcache.tags.ageTaskId_1024::2          168                       # Occupied blocks per task id, per block age (Count)
system.cpu.dcache.tags.ageTaskId_1024::3          303                       # Occupied blocks per task id, per block age (Count)
system.cpu.dcache.tags.ratioOccsTaskId::1024            1                       # Ratio of occupied blocks and all blocks, per task id (Ratio)
system.cpu.dcache.tags.tagAccesses         8011866040                       # Number of tag accesses (Count)
system.cpu.dcache.tags.dataAccesses        8011866040                       # Number of data accesses (Count)
system.cpu.dcache.tags.power_state.pwrStateResidencyTicks::UNDEFINED 3305017221500                       # Cumulative time (in ticks) in various power states (Tick)
system.cpu.dtb_walker_cache.blockedCycles::no_mshrs            0                       # number of cycles access was blocked (Cycle)
system.cpu.dtb_walker_cache.blockedCycles::no_targets            0                       # number of cycles access was blocked (Cycle)
system.cpu.dtb_walker_cache.blockedCauses::no_mshrs            0                       # number of times access was blocked (Count)
system.cpu.dtb_walker_cache.blockedCauses::no_targets            0                       # number of times access was blocked (Count)
system.cpu.dtb_walker_cache.avgBlocked::no_mshrs          nan                       # average number of cycles each access was blocked ((Cycle/Count))
system.cpu.dtb_walker_cache.avgBlocked::no_targets          nan                       # average number of cycles each access was blocked ((Cycle/Count))
system.cpu.dtb_walker_cache.replacements            0                       # number of replacements (Count)
system.cpu.dtb_walker_cache.power_state.pwrStateResidencyTicks::UNDEFINED 3305017221500                       # Cumulative time (in ticks) in various power states (Tick)
system.cpu.dtb_walker_cache.tags.tagsInUse            0                       # Average ticks per tags in use ((Tick/Count))
system.cpu.dtb_walker_cache.tags.totalRefs            0                       # Total number of references to valid blocks. (Count)
system.cpu.dtb_walker_cache.tags.sampledRefs            0                       # Sample count of references to valid blocks. (Count)
system.cpu.dtb_walker_cache.tags.avgRefs          nan                       # Average number of references to valid blocks. ((Count/Count))
system.cpu.dtb_walker_cache.tags.warmupTick            0                       # The tick when the warmup percentage was hit. (Tick)
system.cpu.dtb_walker_cache.tags.tagAccesses            0                       # Number of tag accesses (Count)
system.cpu.dtb_walker_cache.tags.dataAccesses            0                       # Number of data accesses (Count)
system.cpu.dtb_walker_cache.tags.power_state.pwrStateResidencyTicks::UNDEFINED 3305017221500                       # Cumulative time (in ticks) in various power states (Tick)
system.cpu.fetch2.intInstructions                   0                       # Number of integer instructions successfully decoded (Count)
system.cpu.fetch2.fpInstructions                    0                       # Number of floating point instructions successfully decoded (Count)
system.cpu.fetch2.vecInstructions                   0                       # Number of SIMD instructions successfully decoded (Count)
system.cpu.fetch2.loadInstructions                  0                       # Number of memory load instructions successfully decoded (Count)
system.cpu.fetch2.storeInstructions                 0                       # Number of memory store instructions successfully decoded (Count)
system.cpu.fetch2.amoInstructions                   0                       # Number of memory atomic instructions successfully decoded (Count)
system.cpu.icache.demandHits::cpu.inst      387126256                       # number of demand (read+write) hits (Count)
system.cpu.icache.demandHits::total         387126256                       # number of demand (read+write) hits (Count)
system.cpu.icache.overallHits::cpu.inst     387126256                       # number of overall hits (Count)
system.cpu.icache.overallHits::total        387126256                       # number of overall hits (Count)
system.cpu.icache.demandMisses::cpu.inst            8                       # number of demand (read+write) misses (Count)
system.cpu.icache.demandMisses::total               8                       # number of demand (read+write) misses (Count)
system.cpu.icache.overallMisses::cpu.inst            8                       # number of overall misses (Count)
system.cpu.icache.overallMisses::total              8                       # number of overall misses (Count)
system.cpu.icache.demandMissLatency::cpu.inst       921500                       # number of demand (read+write) miss ticks (Tick)
system.cpu.icache.demandMissLatency::total       921500                       # number of demand (read+write) miss ticks (Tick)
system.cpu.icache.overallMissLatency::cpu.inst       921500                       # number of overall miss ticks (Tick)
system.cpu.icache.overallMissLatency::total       921500                       # number of overall miss ticks (Tick)
system.cpu.icache.demandAccesses::cpu.inst    387126264                       # number of demand (read+write) accesses (Count)
system.cpu.icache.demandAccesses::total     387126264                       # number of demand (read+write) accesses (Count)
system.cpu.icache.overallAccesses::cpu.inst    387126264                       # number of overall (read+write) accesses (Count)
system.cpu.icache.overallAccesses::total    387126264                       # number of overall (read+write) accesses (Count)
system.cpu.icache.demandMissRate::cpu.inst     0.000000                       # miss rate for demand accesses (Ratio)
system.cpu.icache.demandMissRate::total      0.000000                       # miss rate for demand accesses (Ratio)
system.cpu.icache.overallMissRate::cpu.inst     0.000000                       # miss rate for overall accesses (Ratio)
system.cpu.icache.overallMissRate::total     0.000000                       # miss rate for overall accesses (Ratio)
system.cpu.icache.demandAvgMissLatency::cpu.inst 115187.500000                       # average overall miss latency in ticks ((Tick/Count))
system.cpu.icache.demandAvgMissLatency::total 115187.500000                       # average overall miss latency in ticks ((Tick/Count))
system.cpu.icache.overallAvgMissLatency::cpu.inst 115187.500000                       # average overall miss latency ((Tick/Count))
system.cpu.icache.overallAvgMissLatency::total 115187.500000                       # average overall miss latency ((Tick/Count))
system.cpu.icache.blockedCycles::no_mshrs            0                       # number of cycles access was blocked (Cycle)
system.cpu.icache.blockedCycles::no_targets            0                       # number of cycles access was blocked (Cycle)
system.cpu.icache.blockedCauses::no_mshrs            0                       # number of times access was blocked (Count)
system.cpu.icache.blockedCauses::no_targets            0                       # number of times access was blocked (Count)
system.cpu.icache.avgBlocked::no_mshrs            nan                       # average number of cycles each access was blocked ((Cycle/Count))
system.cpu.icache.avgBlocked::no_targets          nan                       # average number of cycles each access was blocked ((Cycle/Count))
system.cpu.icache.writebacks::writebacks            8                       # number of writebacks (Count)
system.cpu.icache.writebacks::total                 8                       # number of writebacks (Count)
system.cpu.icache.demandMshrMisses::cpu.inst            8                       # number of demand (read+write) MSHR misses (Count)
system.cpu.icache.demandMshrMisses::total            8                       # number of demand (read+write) MSHR misses (Count)
system.cpu.icache.overallMshrMisses::cpu.inst            8                       # number of overall MSHR misses (Count)
system.cpu.icache.overallMshrMisses::total            8                       # number of overall MSHR misses (Count)
system.cpu.icache.demandMshrMissLatency::cpu.inst       913500                       # number of demand (read+write) MSHR miss ticks (Tick)
system.cpu.icache.demandMshrMissLatency::total       913500                       # number of demand (read+write) MSHR miss ticks (Tick)
system.cpu.icache.overallMshrMissLatency::cpu.inst       913500                       # number of overall MSHR miss ticks (Tick)
system.cpu.icache.overallMshrMissLatency::total       913500                       # number of overall MSHR miss ticks (Tick)
system.cpu.icache.demandMshrMissRate::cpu.inst     0.000000                       # mshr miss ratio for demand accesses (Ratio)
system.cpu.icache.demandMshrMissRate::total     0.000000                       # mshr miss ratio for demand accesses (Ratio)
system.cpu.icache.overallMshrMissRate::cpu.inst     0.000000                       # mshr miss ratio for overall accesses (Ratio)
system.cpu.icache.overallMshrMissRate::total     0.000000                       # mshr miss ratio for overall accesses (Ratio)
system.cpu.icache.demandAvgMshrMissLatency::cpu.inst 114187.500000                       # average overall mshr miss latency ((Tick/Count))
system.cpu.icache.demandAvgMshrMissLatency::total 114187.500000                       # average overall mshr miss latency ((Tick/Count))
system.cpu.icache.overallAvgMshrMissLatency::cpu.inst 114187.500000                       # average overall mshr miss latency ((Tick/Count))
system.cpu.icache.overallAvgMshrMissLatency::total 114187.500000                       # average overall mshr miss latency ((Tick/Count))
system.cpu.icache.replacements                      8                       # number of replacements (Count)
system.cpu.icache.ReadReq.hits::cpu.inst    387126256                       # number of ReadReq hits (Count)
system.cpu.icache.ReadReq.hits::total       387126256                       # number of ReadReq hits (Count)
system.cpu.icache.ReadReq.misses::cpu.inst            8                       # number of ReadReq misses (Count)
system.cpu.icache.ReadReq.misses::total             8                       # number of ReadReq misses (Count)
system.cpu.icache.ReadReq.missLatency::cpu.inst       921500                       # number of ReadReq miss ticks (Tick)
system.cpu.icache.ReadReq.missLatency::total       921500                       # number of ReadReq miss ticks (Tick)
system.cpu.icache.ReadReq.accesses::cpu.inst    387126264                       # number of ReadReq accesses(hits+misses) (Count)
system.cpu.icache.ReadReq.accesses::total    387126264                       # number of ReadReq accesses(hits+misses) (Count)
system.cpu.icache.ReadReq.missRate::cpu.inst     0.000000                       # miss rate for ReadReq accesses (Ratio)
system.cpu.icache.ReadReq.missRate::total     0.000000                       # miss rate for ReadReq accesses (Ratio)
system.cpu.icache.ReadReq.avgMissLatency::cpu.inst 115187.500000                       # average ReadReq miss latency ((Tick/Count))
system.cpu.icache.ReadReq.avgMissLatency::total 115187.500000                       # average ReadReq miss latency ((Tick/Count))
system.cpu.icache.ReadReq.mshrMisses::cpu.inst            8                       # number of ReadReq MSHR misses (Count)
system.cpu.icache.ReadReq.mshrMisses::total            8                       # number of ReadReq MSHR misses (Count)
system.cpu.icache.ReadReq.mshrMissLatency::cpu.inst       913500                       # number of ReadReq MSHR miss ticks (Tick)
system.cpu.icache.ReadReq.mshrMissLatency::total       913500                       # number of ReadReq MSHR miss ticks (Tick)
system.cpu.icache.ReadReq.mshrMissRate::cpu.inst     0.000000                       # mshr miss rate for ReadReq accesses (Ratio)
system.cpu.icache.ReadReq.mshrMissRate::total     0.000000                       # mshr miss rate for ReadReq accesses (Ratio)
system.cpu.icache.ReadReq.avgMshrMissLatency::cpu.inst 114187.500000                       # average ReadReq mshr miss latency ((Tick/Count))
system.cpu.icache.ReadReq.avgMshrMissLatency::total 114187.500000                       # average ReadReq mshr miss latency ((Tick/Count))
system.cpu.icache.power_state.pwrStateResidencyTicks::UNDEFINED 3305017221500                       # Cumulative time (in ticks) in various power states (Tick)
system.cpu.icache.tags.tagsInUse                  512                       # Average ticks per tags in use ((Tick/Count))
system.cpu.icache.tags.totalRefs                  265                       # Total number of references to valid blocks. (Count)
system.cpu.icache.tags.sampledRefs                  8                       # Sample count of references to valid blocks. (Count)
system.cpu.icache.tags.avgRefs              33.125000                       # Average number of references to valid blocks. ((Count/Count))
system.cpu.icache.tags.warmupTick           159211500                       # The tick when the warmup percentage was hit. (Tick)
system.cpu.icache.tags.occupancies::cpu.inst          512                       # Average occupied blocks per tick, per requestor ((Count/Tick))
system.cpu.icache.tags.avgOccs::cpu.inst            1                       # Average percentage of cache occupancy ((Ratio/Tick))
system.cpu.icache.tags.avgOccs::total               1                       # Average percentage of cache occupancy ((Ratio/Tick))
system.cpu.icache.tags.occupanciesTaskId::1024          512                       # Occupied blocks per task id (Count)
system.cpu.icache.tags.ageTaskId_1024::0            7                       # Occupied blocks per task id, per block age (Count)
system.cpu.icache.tags.ageTaskId_1024::4          505                       # Occupied blocks per task id, per block age (Count)
system.cpu.icache.tags.ratioOccsTaskId::1024            1                       # Ratio of occupied blocks and all blocks, per task id (Ratio)
system.cpu.icache.tags.tagAccesses         3097010120                       # Number of tag accesses (Count)
system.cpu.icache.tags.dataAccesses        3097010120                       # Number of data accesses (Count)
system.cpu.icache.tags.power_state.pwrStateResidencyTicks::UNDEFINED 3305017221500                       # Cumulative time (in ticks) in various power states (Tick)
system.cpu.interrupts.clk_domain.clock           8000                       # Clock period in ticks (Tick)
system.cpu.itb_walker_cache.blockedCycles::no_mshrs            0                       # number of cycles access was blocked (Cycle)
system.cpu.itb_walker_cache.blockedCycles::no_targets            0                       # number of cycles access was blocked (Cycle)
system.cpu.itb_walker_cache.blockedCauses::no_mshrs            0                       # number of times access was blocked (Count)
system.cpu.itb_walker_cache.blockedCauses::no_targets            0                       # number of times access was blocked (Count)
system.cpu.itb_walker_cache.avgBlocked::no_mshrs          nan                       # average number of cycles each access was blocked ((Cycle/Count))
system.cpu.itb_walker_cache.avgBlocked::no_targets          nan                       # average number of cycles each access was blocked ((Cycle/Count))
system.cpu.itb_walker_cache.replacements            0                       # number of replacements (Count)
system.cpu.itb_walker_cache.power_state.pwrStateResidencyTicks::UNDEFINED 3305017221500                       # Cumulative time (in ticks) in various power states (Tick)
system.cpu.itb_walker_cache.tags.tagsInUse            0                       # Average ticks per tags in use ((Tick/Count))
system.cpu.itb_walker_cache.tags.totalRefs            0                       # Total number of references to valid blocks. (Count)
system.cpu.itb_walker_cache.tags.sampledRefs            0                       # Sample count of references to valid blocks. (Count)
system.cpu.itb_walker_cache.tags.avgRefs          nan                       # Average number of references to valid blocks. ((Count/Count))
system.cpu.itb_walker_cache.tags.warmupTick            0                       # The tick when the warmup percentage was hit. (Tick)
system.cpu.itb_walker_cache.tags.tagAccesses            0                       # Number of tag accesses (Count)
system.cpu.itb_walker_cache.tags.dataAccesses            0                       # Number of data accesses (Count)
system.cpu.itb_walker_cache.tags.power_state.pwrStateResidencyTicks::UNDEFINED 3305017221500                       # Cumulative time (in ticks) in various power states (Tick)
system.cpu.mmu.dtb.rdAccesses               890758273                       # TLB accesses on read requests (Count)
system.cpu.mmu.dtb.wrAccesses               179497050                       # TLB accesses on write requests (Count)
system.cpu.mmu.dtb.rdMisses                     28423                       # TLB misses on read requests (Count)
system.cpu.mmu.dtb.wrMisses                      2930                       # TLB misses on write requests (Count)
system.cpu.mmu.dtb.walker.power_state.pwrStateResidencyTicks::UNDEFINED 3305017221500                       # Cumulative time (in ticks) in various power states (Tick)
system.cpu.mmu.itb.rdAccesses                       0                       # TLB accesses on read requests (Count)
system.cpu.mmu.itb.wrAccesses               387126264                       # TLB accesses on write requests (Count)
system.cpu.mmu.itb.rdMisses                         0                       # TLB misses on read requests (Count)
system.cpu.mmu.itb.wrMisses                         0                       # TLB misses on write requests (Count)
system.cpu.mmu.itb.walker.power_state.pwrStateResidencyTicks::UNDEFINED 3305017221500                       # Cumulative time (in ticks) in various power states (Tick)
system.cpu.power_state.pwrStateResidencyTicks::ON 3305017221500                       # Cumulative time (in ticks) in various power states (Tick)
system.cpu.thread_0.numInsts               1592492876                       # Number of Instructions committed (Count)
system.cpu.thread_0.numOps                 2387981602                       # Number of Ops committed (Count)
system.cpu.thread_0.numMemRefs                      0                       # Number of Memory References (Count)
system.cpu.workload.numSyscalls                     1                       # Number of system calls (Count)
system.cpu_clk_domain.clock                       500                       # Clock period in ticks (Tick)
system.cpu_voltage_domain.voltage                   1                       # Voltage in Volts (Volt)
system.l2.demandHits::cpu.data                2192290                       # number of demand (read+write) hits (Count)
system.l2.demandHits::total                   2192290                       # number of demand (read+write) hits (Count)
system.l2.overallHits::cpu.data               2192290                       # number of overall hits (Count)
system.l2.overallHits::total                  2192290                       # number of overall hits (Count)
system.l2.demandMisses::cpu.inst                    8                       # number of demand (read+write) misses (Count)
system.l2.demandMisses::cpu.data               591462                       # number of demand (read+write) misses (Count)
system.l2.demandMisses::total                  591470                       # number of demand (read+write) misses (Count)
system.l2.overallMisses::cpu.inst                   8                       # number of overall misses (Count)
system.l2.overallMisses::cpu.data              591462                       # number of overall misses (Count)
system.l2.overallMisses::total                 591470                       # number of overall misses (Count)
system.l2.demandMissLatency::cpu.inst          901500                       # number of demand (read+write) miss ticks (Tick)
system.l2.demandMissLatency::cpu.data     63304500000                       # number of demand (read+write) miss ticks (Tick)
system.l2.demandMissLatency::total        63305401500                       # number of demand (read+write) miss ticks (Tick)
system.l2.overallMissLatency::cpu.inst         901500                       # number of overall miss ticks (Tick)
system.l2.overallMissLatency::cpu.data    63304500000                       # number of overall miss ticks (Tick)
system.l2.overallMissLatency::total       63305401500                       # number of overall miss ticks (Tick)
system.l2.demandAccesses::cpu.inst                  8                       # number of demand (read+write) accesses (Count)
system.l2.demandAccesses::cpu.data            2783752                       # number of demand (read+write) accesses (Count)
system.l2.demandAccesses::total               2783760                       # number of demand (read+write) accesses (Count)
system.l2.overallAccesses::cpu.inst                 8                       # number of overall (read+write) accesses (Count)
system.l2.overallAccesses::cpu.data           2783752                       # number of overall (read+write) accesses (Count)
system.l2.overallAccesses::total              2783760                       # number of overall (read+write) accesses (Count)
system.l2.demandMissRate::cpu.inst                  1                       # miss rate for demand accesses (Ratio)
system.l2.demandMissRate::cpu.data           0.212469                       # miss rate for demand accesses (Ratio)
system.l2.demandMissRate::total              0.212472                       # miss rate for demand accesses (Ratio)
system.l2.overallMissRate::cpu.inst                 1                       # miss rate for overall accesses (Ratio)
system.l2.overallMissRate::cpu.data          0.212469                       # miss rate for overall accesses (Ratio)
system.l2.overallMissRate::total             0.212472                       # miss rate for overall accesses (Ratio)
system.l2.demandAvgMissLatency::cpu.inst 112687.500000                       # average overall miss latency in ticks ((Tick/Count))
system.l2.demandAvgMissLatency::cpu.data 107030.544650                       # average overall miss latency in ticks ((Tick/Count))
system.l2.demandAvgMissLatency::total    107030.621164                       # average overall miss latency in ticks ((Tick/Count))
system.l2.overallAvgMissLatency::cpu.inst 112687.500000                       # average overall miss latency ((Tick/Count))
system.l2.overallAvgMissLatency::cpu.data 107030.544650                       # average overall miss latency ((Tick/Count))
system.l2.overallAvgMissLatency::total   107030.621164                       # average overall miss latency ((Tick/Count))
system.l2.blockedCycles::no_mshrs                   0                       # number of cycles access was blocked (Cycle)
system.l2.blockedCycles::no_targets                 0                       # number of cycles access was blocked (Cycle)
system.l2.blockedCauses::no_mshrs                   0                       # number of times access was blocked (Count)
system.l2.blockedCauses::no_targets                 0                       # number of times access was blocked (Count)
system.l2.avgBlocked::no_mshrs                    nan                       # average number of cycles each access was blocked ((Cycle/Count))
system.l2.avgBlocked::no_targets                  nan                       # average number of cycles each access was blocked ((Cycle/Count))
system.l2.writebacks::writebacks              1086067                       # number of writebacks (Count)
system.l2.writebacks::total                   1086067                       # number of writebacks (Count)
system.l2.demandMshrMisses::cpu.inst                8                       # number of demand (read+write) MSHR misses (Count)
system.l2.demandMshrMisses::cpu.data           591462                       # number of demand (read+write) MSHR misses (Count)
system.l2.demandMshrMisses::total              591470                       # number of demand (read+write) MSHR misses (Count)
system.l2.overallMshrMisses::cpu.inst               8                       # number of overall MSHR misses (Count)
system.l2.overallMshrMisses::cpu.data          591462                       # number of overall MSHR misses (Count)
system.l2.overallMshrMisses::l2.prefetcher       591146                       # number of overall MSHR misses (Count)
system.l2.overallMshrMisses::total            1182616                       # number of overall MSHR misses (Count)
system.l2.demandMshrMissLatency::cpu.inst       821500                       # number of demand (read+write) MSHR miss ticks (Tick)
system.l2.demandMshrMissLatency::cpu.data  57389880000                       # number of demand (read+write) MSHR miss ticks (Tick)
system.l2.demandMshrMissLatency::total    57390701500                       # number of demand (read+write) MSHR miss ticks (Tick)
system.l2.overallMshrMissLatency::cpu.inst       821500                       # number of overall MSHR miss ticks (Tick)
system.l2.overallMshrMissLatency::cpu.data  57389880000                       # number of overall MSHR miss ticks (Tick)
system.l2.overallMshrMissLatency::l2.prefetcher  55027222111                       # number of overall MSHR miss ticks (Tick)
system.l2.overallMshrMissLatency::total  112417923611                       # number of overall MSHR miss ticks (Tick)
system.l2.demandMshrMissRate::cpu.inst              1                       # mshr miss ratio for demand accesses (Ratio)
system.l2.demandMshrMissRate::cpu.data       0.212469                       # mshr miss ratio for demand accesses (Ratio)
system.l2.demandMshrMissRate::total          0.212472                       # mshr miss ratio for demand accesses (Ratio)
system.l2.overallMshrMissRate::cpu.inst             1                       # mshr miss ratio for overall accesses (Ratio)
system.l2.overallMshrMissRate::cpu.data      0.212469                       # mshr miss ratio for overall accesses (Ratio)
system.l2.overallMshrMissRate::l2.prefetcher          inf                       # mshr miss ratio for overall accesses (Ratio)
system.l2.overallMshrMissRate::total         0.424827                       # mshr miss ratio for overall accesses (Ratio)
system.l2.demandAvgMshrMissLatency::cpu.inst 102687.500000                       # average overall mshr miss latency ((Tick/Count))
system.l2.demandAvgMshrMissLatency::cpu.data 97030.544650                       # average overall mshr miss latency ((Tick/Count))
system.l2.demandAvgMshrMissLatency::total 97030.621164                       # average overall mshr miss latency ((Tick/Count))
system.l2.overallAvgMshrMissLatency::cpu.inst 102687.500000                       # average overall mshr miss latency ((Tick/Count))
system.l2.overallAvgMshrMissLatency::cpu.data 97030.544650                       # average overall mshr miss latency ((Tick/Count))
system.l2.overallAvgMshrMissLatency::l2.prefetcher 93085.671071                       # average overall mshr miss latency ((Tick/Count))
system.l2.overallAvgMshrMissLatency::total 95058.686514                       # average overall mshr miss latency ((Tick/Count))
system.l2.replacements                        1182640                       # number of replacements (Count)
system.l2.HardPFReq.mshrMisses::l2.prefetcher       591146                       # number of HardPFReq MSHR misses (Count)
system.l2.HardPFReq.mshrMisses::total          591146                       # number of HardPFReq MSHR misses (Count)
system.l2.HardPFReq.mshrMissLatency::l2.prefetcher  55027222111                       # number of HardPFReq MSHR miss ticks (Tick)
system.l2.HardPFReq.mshrMissLatency::total  55027222111                       # number of HardPFReq MSHR miss ticks (Tick)
system.l2.HardPFReq.mshrMissRate::l2.prefetcher          inf                       # mshr miss rate for HardPFReq accesses (Ratio)
system.l2.HardPFReq.mshrMissRate::total           inf                       # mshr miss rate for HardPFReq accesses (Ratio)
system.l2.HardPFReq.avgMshrMissLatency::l2.prefetcher 93085.671071                       # average HardPFReq mshr miss latency ((Tick/Count))
system.l2.HardPFReq.avgMshrMissLatency::total 93085.671071                       # average HardPFReq mshr miss latency ((Tick/Count))
system.l2.ReadCleanReq.misses::cpu.inst             8                       # number of ReadCleanReq misses (Count)
system.l2.ReadCleanReq.misses::total                8                       # number of ReadCleanReq misses (Count)
system.l2.ReadCleanReq.missLatency::cpu.inst       901500                       # number of ReadCleanReq miss ticks (Tick)
system.l2.ReadCleanReq.missLatency::total       901500                       # number of ReadCleanReq miss ticks (Tick)
system.l2.ReadCleanReq.accesses::cpu.inst            8                       # number of ReadCleanReq accesses(hits+misses) (Count)
system.l2.ReadCleanReq.accesses::total              8                       # number of ReadCleanReq accesses(hits+misses) (Count)
system.l2.ReadCleanReq.missRate::cpu.inst            1                       # miss rate for ReadCleanReq accesses (Ratio)
system.l2.ReadCleanReq.missRate::total              1                       # miss rate for ReadCleanReq accesses (Ratio)
system.l2.ReadCleanReq.avgMissLatency::cpu.inst 112687.500000                       # average ReadCleanReq miss latency ((Tick/Count))
system.l2.ReadCleanReq.avgMissLatency::total 112687.500000                       # average ReadCleanReq miss latency ((Tick/Count))
system.l2.ReadCleanReq.mshrMisses::cpu.inst            8                       # number of ReadCleanReq MSHR misses (Count)
system.l2.ReadCleanReq.mshrMisses::total            8                       # number of ReadCleanReq MSHR misses (Count)
system.l2.ReadCleanReq.mshrMissLatency::cpu.inst       821500                       # number of ReadCleanReq MSHR miss ticks (Tick)
system.l2.ReadCleanReq.mshrMissLatency::total       821500                       # number of ReadCleanReq MSHR miss ticks (Tick)
system.l2.ReadCleanReq.mshrMissRate::cpu.inst            1                       # mshr miss rate for ReadCleanReq accesses (Ratio)
system.l2.ReadCleanReq.mshrMissRate::total            1                       # mshr miss rate for ReadCleanReq accesses (Ratio)
system.l2.ReadCleanReq.avgMshrMissLatency::cpu.inst 102687.500000                       # average ReadCleanReq mshr miss latency ((Tick/Count))
system.l2.ReadCleanReq.avgMshrMissLatency::total 102687.500000                       # average ReadCleanReq mshr miss latency ((Tick/Count))
system.l2.ReadExReq.hits::cpu.data             100090                       # number of ReadExReq hits (Count)
system.l2.ReadExReq.hits::total                100090                       # number of ReadExReq hits (Count)
system.l2.ReadExReq.misses::cpu.data            93970                       # number of ReadExReq misses (Count)
system.l2.ReadExReq.misses::total               93970                       # number of ReadExReq misses (Count)
system.l2.ReadExReq.missLatency::cpu.data  10184488500                       # number of ReadExReq miss ticks (Tick)
system.l2.ReadExReq.missLatency::total    10184488500                       # number of ReadExReq miss ticks (Tick)
system.l2.ReadExReq.accesses::cpu.data         194060                       # number of ReadExReq accesses(hits+misses) (Count)
system.l2.ReadExReq.accesses::total            194060                       # number of ReadExReq accesses(hits+misses) (Count)
system.l2.ReadExReq.missRate::cpu.data       0.484232                       # miss rate for ReadExReq accesses (Ratio)
system.l2.ReadExReq.missRate::total          0.484232                       # miss rate for ReadExReq accesses (Ratio)
system.l2.ReadExReq.avgMissLatency::cpu.data 108380.211770                       # average ReadExReq miss latency ((Tick/Count))
system.l2.ReadExReq.avgMissLatency::total 108380.211770                       # average ReadExReq miss latency ((Tick/Count))
system.l2.ReadExReq.mshrMisses::cpu.data        93970                       # number of ReadExReq MSHR misses (Count)
system.l2.ReadExReq.mshrMisses::total           93970                       # number of ReadExReq MSHR misses (Count)
system.l2.ReadExReq.mshrMissLatency::cpu.data   9244788500                       # number of ReadExReq MSHR miss ticks (Tick)
system.l2.ReadExReq.mshrMissLatency::total   9244788500                       # number of ReadExReq MSHR miss ticks (Tick)
system.l2.ReadExReq.mshrMissRate::cpu.data     0.484232                       # mshr miss rate for ReadExReq accesses (Ratio)
system.l2.ReadExReq.mshrMissRate::total      0.484232                       # mshr miss rate for ReadExReq accesses (Ratio)
system.l2.ReadExReq.avgMshrMissLatency::cpu.data 98380.211770                       # average ReadExReq mshr miss latency ((Tick/Count))
system.l2.ReadExReq.avgMshrMissLatency::total 98380.211770                       # average ReadExReq mshr miss latency ((Tick/Count))
system.l2.ReadSharedReq.hits::cpu.data        2092200                       # number of ReadSharedReq hits (Count)
system.l2.ReadSharedReq.hits::total           2092200                       # number of ReadSharedReq hits (Count)
system.l2.ReadSharedReq.misses::cpu.data       497492                       # number of ReadSharedReq misses (Count)
system.l2.ReadSharedReq.misses::total          497492                       # number of ReadSharedReq misses (Count)
system.l2.ReadSharedReq.missLatency::cpu.data  53120011500                       # number of ReadSharedReq miss ticks (Tick)
system.l2.ReadSharedReq.missLatency::total  53120011500                       # number of ReadSharedReq miss ticks (Tick)
system.l2.ReadSharedReq.accesses::cpu.data      2589692                       # number of ReadSharedReq accesses(hits+misses) (Count)
system.l2.ReadSharedReq.accesses::total       2589692                       # number of ReadSharedReq accesses(hits+misses) (Count)
system.l2.ReadSharedReq.missRate::cpu.data     0.192105                       # miss rate for ReadSharedReq accesses (Ratio)
system.l2.ReadSharedReq.missRate::total      0.192105                       # miss rate for ReadSharedReq accesses (Ratio)
system.l2.ReadSharedReq.avgMissLatency::cpu.data 106775.609457                       # average ReadSharedReq miss latency ((Tick/Count))
system.l2.ReadSharedReq.avgMissLatency::total 106775.609457                       # average ReadSharedReq miss latency ((Tick/Count))
system.l2.ReadSharedReq.mshrMisses::cpu.data       497492                       # number of ReadSharedReq MSHR misses (Count)
system.l2.ReadSharedReq.mshrMisses::total       497492                       # number of ReadSharedReq MSHR misses (Count)
system.l2.ReadSharedReq.mshrMissLatency::cpu.data  48145091500                       # number of ReadSharedReq MSHR miss ticks (Tick)
system.l2.ReadSharedReq.mshrMissLatency::total  48145091500                       # number of ReadSharedReq MSHR miss ticks (Tick)
system.l2.ReadSharedReq.mshrMissRate::cpu.data     0.192105                       # mshr miss rate for ReadSharedReq accesses (Ratio)
system.l2.ReadSharedReq.mshrMissRate::total     0.192105                       # mshr miss rate for ReadSharedReq accesses (Ratio)
system.l2.ReadSharedReq.avgMshrMissLatency::cpu.data 96775.609457                       # average ReadSharedReq mshr miss latency ((Tick/Count))
system.l2.ReadSharedReq.avgMshrMissLatency::total 96775.609457                       # average ReadSharedReq mshr miss latency ((Tick/Count))
system.l2.WritebackClean.hits::writebacks            8                       # number of WritebackClean hits (Count)
system.l2.WritebackClean.hits::total                8                       # number of WritebackClean hits (Count)
system.l2.WritebackClean.accesses::writebacks            8                       # number of WritebackClean accesses(hits+misses) (Count)
system.l2.WritebackClean.accesses::total            8                       # number of WritebackClean accesses(hits+misses) (Count)
system.l2.WritebackDirty.hits::writebacks      2643870                       # number of WritebackDirty hits (Count)
system.l2.WritebackDirty.hits::total          2643870                       # number of WritebackDirty hits (Count)
system.l2.WritebackDirty.accesses::writebacks      2643870                       # number of WritebackDirty accesses(hits+misses) (Count)
system.l2.WritebackDirty.accesses::total      2643870                       # number of WritebackDirty accesses(hits+misses) (Count)
system.l2.power_state.pwrStateResidencyTicks::UNDEFINED 3305017221500                       # Cumulative time (in ticks) in various power states (Tick)
system.l2.prefetcher.demandMshrMisses          591470                       # demands not covered by prefetchs (Count)
system.l2.prefetcher.pfIssued                  591504                       # number of hwpf issued (Count)
system.l2.prefetcher.pfUnused                       8                       # number of HardPF blocks evicted w/o reference (Count)
system.l2.prefetcher.pfUseful                  591138                       # number of useful prefetch (Count)
system.l2.prefetcher.pfUsefulButMiss                0                       # number of hit on prefetch but cache block is not in an usable state (Count)
system.l2.prefetcher.accuracy                0.999381                       # accuracy of the prefetcher (Count)
system.l2.prefetcher.coverage                0.499860                       # coverage brought by this prefetcher (Count)
system.l2.prefetcher.pfHitInCache                 358                       # number of prefetches hitting in cache (Count)
system.l2.prefetcher.pfHitInMSHR                    0                       # number of prefetches hitting in a MSHR (Count)
system.l2.prefetcher.pfHitInWB                      0                       # number of prefetches hit in the Write Buffer (Count)
system.l2.prefetcher.pfLate                       358                       # number of late prefetches (hitting in cache, MSHR or WB) (Count)
system.l2.prefetcher.pfIdentified              591504                       # number of prefetch candidates identified (Count)
system.l2.prefetcher.pfBufferHit                    0                       # number of redundant prefetches already in prefetch queue (Count)
system.l2.prefetcher.pfInCache                      0                       # number of redundant prefetches already in cache/mshr dropped (Count)
system.l2.prefetcher.pfRemovedDemand                0                       # number of prefetches dropped due to a demand for the same address (Count)
system.l2.prefetcher.pfRemovedFull                  0                       # number of prefetches dropped due to prefetch queue size (Count)
system.l2.prefetcher.pfSpanPage                   136                       # number of prefetches that crossed the page (Count)
system.l2.prefetcher.pfUsefulSpanPage               0                       # number of prefetches that is useful and crossed the page (Count)
system.l2.prefetcher.power_state.pwrStateResidencyTicks::UNDEFINED 3305017221500                       # Cumulative time (in ticks) in various power states (Tick)
system.l2.tags.tagsInUse                        32768                       # Average ticks per tags in use ((Tick/Count))
system.l2.tags.totalRefs                      6148173                       # Total number of references to valid blocks. (Count)
system.l2.tags.sampledRefs                    1182640                       # Sample count of references to valid blocks. (Count)
system.l2.tags.avgRefs                       5.198685                       # Average number of references to valid blocks. ((Count/Count))
system.l2.tags.warmupTick                 31774487000                       # The tick when the warmup percentage was hit. (Tick)
system.l2.tags.occupancies::writebacks       3.803359                       # Average occupied blocks per tick, per requestor ((Count/Tick))
system.l2.tags.occupancies::cpu.inst         2.824008                       # Average occupied blocks per tick, per requestor ((Count/Tick))
system.l2.tags.occupancies::cpu.data     16391.138170                       # Average occupied blocks per tick, per requestor ((Count/Tick))
system.l2.tags.occupancies::l2.prefetcher 16370.234463                       # Average occupied blocks per tick, per requestor ((Count/Tick))
system.l2.tags.avgOccs::writebacks           0.000116                       # Average percentage of cache occupancy ((Ratio/Tick))
system.l2.tags.avgOccs::cpu.inst             0.000086                       # Average percentage of cache occupancy ((Ratio/Tick))
system.l2.tags.avgOccs::cpu.data             0.500218                       # Average percentage of cache occupancy ((Ratio/Tick))
system.l2.tags.avgOccs::l2.prefetcher        0.499580                       # Average percentage of cache occupancy ((Ratio/Tick))
system.l2.tags.avgOccs::total                       1                       # Average percentage of cache occupancy ((Ratio/Tick))
system.l2.tags.occupanciesTaskId::1022          16343                       # Occupied blocks per task id (Count)
system.l2.tags.occupanciesTaskId::1024          16425                       # Occupied blocks per task id (Count)
system.l2.tags.ageTaskId_1022::4                16343                       # Occupied blocks per task id, per block age (Count)
system.l2.tags.ageTaskId_1024::0                   45                       # Occupied blocks per task id, per block age (Count)
system.l2.tags.ageTaskId_1024::4                16380                       # Occupied blocks per task id, per block age (Count)
system.l2.tags.ratioOccsTaskId::1022         0.498749                       # Ratio of occupied blocks and all blocks, per task id (Ratio)
system.l2.tags.ratioOccsTaskId::1024         0.501251                       # Ratio of occupied blocks and all blocks, per task id (Ratio)
system.l2.tags.tagAccesses                   90262928                       # Number of tag accesses (Count)
system.l2.tags.dataAccesses                  90262928                       # Number of data accesses (Count)
system.l2.tags.power_state.pwrStateResidencyTicks::UNDEFINED 3305017221500                       # Cumulative time (in ticks) in various power states (Tick)
system.mem_ctrls.avgPriority_writebacks::samples   2172136.00                       # Average QoS priority value for accepted requests (Count)
system.mem_ctrls.avgPriority_cpu.inst::samples        16.00                       # Average QoS priority value for accepted requests (Count)
system.mem_ctrls.avgPriority_cpu.data::samples   1182830.00                       # Average QoS priority value for accepted requests (Count)
system.mem_ctrls.avgPriority_l2.prefetcher::samples   1182270.00                       # Average QoS priority value for accepted requests (Count)
system.mem_ctrls.priorityMinLatency      0.000000022500                       # per QoS priority minimum request to response latency (Second)
system.mem_ctrls.priorityMaxLatency      0.371943825500                       # per QoS priority maximum request to response latency (Second)
system.mem_ctrls.numReadWriteTurnArounds       109710                       # Number of turnarounds from READ to WRITE (Count)
system.mem_ctrls.numWriteReadTurnArounds       109710                       # Number of turnarounds from WRITE to READ (Count)
system.mem_ctrls.numStayReadState             4589360                       # Number of times bus staying in READ state (Count)
system.mem_ctrls.numStayWriteState            2068965                       # Number of times bus staying in WRITE state (Count)
system.mem_ctrls.readReqs                     1182616                       # Number of read requests accepted (Count)
system.mem_ctrls.writeReqs                    1086068                       # Number of write requests accepted (Count)
system.mem_ctrls.readBursts                   2365232                       # Number of controller read bursts, including those serviced by the write queue (Count)
system.mem_ctrls.writeBursts                  2172136                       # Number of controller write bursts, including those merged in the write queue (Count)
system.mem_ctrls.servicedByWrQ                    116                       # Number of controller read bursts serviced by the write queue (Count)
system.mem_ctrls.mergedWrBursts                     0                       # Number of controller write bursts merged with an existing one (Count)
system.mem_ctrls.neitherReadNorWriteReqs            0                       # Number of requests that are neither read nor write (Count)
system.mem_ctrls.avgRdQLen                       3.90                       # Average read queue length when enqueuing ((Count/Tick))
system.mem_ctrls.avgWrQLen                      25.58                       # Average write queue length when enqueuing ((Count/Tick))
system.mem_ctrls.numRdRetry                         0                       # Number of times read queue was full causing retry (Count)
system.mem_ctrls.numWrRetry                         0                       # Number of times write queue was full causing retry (Count)
system.mem_ctrls.readPktSize::0                     0                       # Read request sizes (log2) (Count)
system.mem_ctrls.readPktSize::1                     0                       # Read request sizes (log2) (Count)
system.mem_ctrls.readPktSize::2                     0                       # Read request sizes (log2) (Count)
system.mem_ctrls.readPktSize::3                     0                       # Read request sizes (log2) (Count)
system.mem_ctrls.readPktSize::4                     0                       # Read request sizes (log2) (Count)
system.mem_ctrls.readPktSize::5               2365232                       # Read request sizes (log2) (Count)
system.mem_ctrls.readPktSize::6                     0                       # Read request sizes (log2) (Count)
system.mem_ctrls.writePktSize::0                    0                       # Write request sizes (log2) (Count)
system.mem_ctrls.writePktSize::1                    0                       # Write request sizes (log2) (Count)
system.mem_ctrls.writePktSize::2                    0                       # Write request sizes (log2) (Count)
system.mem_ctrls.writePktSize::3                    0                       # Write request sizes (log2) (Count)
system.mem_ctrls.writePktSize::4                    0                       # Write request sizes (log2) (Count)
system.mem_ctrls.writePktSize::5              2172136                       # Write request sizes (log2) (Count)
system.mem_ctrls.writePktSize::6                    0                       # Write request sizes (log2) (Count)
system.mem_ctrls.rdQLenPdf::0                  591429                       # What read queue length does an incoming req see (Count)
system.mem_ctrls.rdQLenPdf::1                  591427                       # What read queue length does an incoming req see (Count)
system.mem_ctrls.rdQLenPdf::2                  147834                       # What read queue length does an incoming req see (Count)
system.mem_ctrls.rdQLenPdf::3                  147833                       # What read queue length does an incoming req see (Count)
system.mem_ctrls.rdQLenPdf::4                  147814                       # What read queue length does an incoming req see (Count)
system.mem_ctrls.rdQLenPdf::5                  147813                       # What read queue length does an incoming req see (Count)
system.mem_ctrls.rdQLenPdf::6                  147779                       # What read queue length does an incoming req see (Count)
system.mem_ctrls.rdQLenPdf::7                  147778                       # What read queue length does an incoming req see (Count)
system.mem_ctrls.rdQLenPdf::8                  147705                       # What read queue length does an incoming req see (Count)
system.mem_ctrls.rdQLenPdf::9                  147704                       # What read queue length does an incoming req see (Count)
system.mem_ctrls.rdQLenPdf::10                      0                       # What read queue length does an incoming req see (Count)
system.mem_ctrls.rdQLenPdf::11                      0                       # What read queue length does an incoming req see (Count)
system.mem_ctrls.rdQLenPdf::12                      0                       # What read queue length does an incoming req see (Count)
system.mem_ctrls.rdQLenPdf::13                      0                       # What read queue length does an incoming req see (Count)
system.mem_ctrls.rdQLenPdf::14                      0                       # What read queue length does an incoming req see (Count)
system.mem_ctrls.rdQLenPdf::15                      0                       # What read queue length does an incoming req see (Count)
system.mem_ctrls.rdQLenPdf::16                      0                       # What read queue length does an incoming req see (Count)
system.mem_ctrls.rdQLenPdf::17                      0                       # What read queue length does an incoming req see (Count)
system.mem_ctrls.rdQLenPdf::18                      0                       # What read queue length does an incoming req see (Count)
system.mem_ctrls.rdQLenPdf::19                      0                       # What read queue length does an incoming req see (Count)
system.mem_ctrls.rdQLenPdf::20                      0                       # What read queue length does an incoming req see (Count)
system.mem_ctrls.rdQLenPdf::21                      0                       # What read queue length does an incoming req see (Count)
system.mem_ctrls.rdQLenPdf::22                      0                       # What read queue length does an incoming req see (Count)
system.mem_ctrls.rdQLenPdf::23                      0                       # What read queue length does an incoming req see (Count)
system.mem_ctrls.rdQLenPdf::24                      0                       # What read queue length does an incoming req see (Count)
system.mem_ctrls.rdQLenPdf::25                      0                       # What read queue length does an incoming req see (Count)
system.mem_ctrls.rdQLenPdf::26                      0                       # What read queue length does an incoming req see (Count)
system.mem_ctrls.rdQLenPdf::27                      0                       # What read queue length does an incoming req see (Count)
system.mem_ctrls.rdQLenPdf::28                      0                       # What read queue length does an incoming req see (Count)
system.mem_ctrls.rdQLenPdf::29                      0                       # What read queue length does an incoming req see (Count)
system.mem_ctrls.rdQLenPdf::30                      0                       # What read queue length does an incoming req see (Count)
system.mem_ctrls.rdQLenPdf::31                      0                       # What read queue length does an incoming req see (Count)
system.mem_ctrls.wrQLenPdf::0                       0                       # What write queue length does an incoming req see (Count)
system.mem_ctrls.wrQLenPdf::1                       0                       # What write queue length does an incoming req see (Count)
system.mem_ctrls.wrQLenPdf::2                       0                       # What write queue length does an incoming req see (Count)
system.mem_ctrls.wrQLenPdf::3                       0                       # What write queue length does an incoming req see (Count)
system.mem_ctrls.wrQLenPdf::4                       0                       # What write queue length does an incoming req see (Count)
system.mem_ctrls.wrQLenPdf::5                       0                       # What write queue length does an incoming req see (Count)
system.mem_ctrls.wrQLenPdf::6                       0                       # What write queue length does an incoming req see (Count)
system.mem_ctrls.wrQLenPdf::7                       0                       # What write queue length does an incoming req see (Count)
system.mem_ctrls.wrQLenPdf::8                       0                       # What write queue length does an incoming req see (Count)
system.mem_ctrls.wrQLenPdf::9                       0                       # What write queue length does an incoming req see (Count)
system.mem_ctrls.wrQLenPdf::10                      0                       # What write queue length does an incoming req see (Count)
system.mem_ctrls.wrQLenPdf::11                      0                       # What write queue length does an incoming req see (Count)
system.mem_ctrls.wrQLenPdf::12                      0                       # What write queue length does an incoming req see (Count)
system.mem_ctrls.wrQLenPdf::13                      0                       # What write queue length does an incoming req see (Count)
system.mem_ctrls.wrQLenPdf::14                      0                       # What write queue length does an incoming req see (Count)
system.mem_ctrls.wrQLenPdf::15                 104097                       # What write queue length does an incoming req see (Count)
system.mem_ctrls.wrQLenPdf::16                 104628                       # What write queue length does an incoming req see (Count)
system.mem_ctrls.wrQLenPdf::17                 108241                       # What write queue length does an incoming req see (Count)
system.mem_ctrls.wrQLenPdf::18                 108414                       # What write queue length does an incoming req see (Count)
system.mem_ctrls.wrQLenPdf::19                 108918                       # What write queue length does an incoming req see (Count)
system.mem_ctrls.wrQLenPdf::20                 109009                       # What write queue length does an incoming req see (Count)
system.mem_ctrls.wrQLenPdf::21                 109291                       # What write queue length does an incoming req see (Count)
system.mem_ctrls.wrQLenPdf::22                 109487                       # What write queue length does an incoming req see (Count)
system.mem_ctrls.wrQLenPdf::23                 109663                       # What write queue length does an incoming req see (Count)
system.mem_ctrls.wrQLenPdf::24                 110065                       # What write queue length does an incoming req see (Count)
system.mem_ctrls.wrQLenPdf::25                 110237                       # What write queue length does an incoming req see (Count)
system.mem_ctrls.wrQLenPdf::26                 114258                       # What write queue length does an incoming req see (Count)
system.mem_ctrls.wrQLenPdf::27                 114977                       # What write queue length does an incoming req see (Count)
system.mem_ctrls.wrQLenPdf::28                 177630                       # What write queue length does an incoming req see (Count)
system.mem_ctrls.wrQLenPdf::29                 183437                       # What write queue length does an incoming req see (Count)
system.mem_ctrls.wrQLenPdf::30                 139259                       # What write queue length does an incoming req see (Count)
[...]
system.mem_ctrls.dram.bwTotal::cpu.data      22911025                       # Total bandwidth to/from this memory ((Byte/Second))
system.mem_ctrls.dram.bwTotal::l2.prefetcher     22897042                       # Total bandwidth to/from this memory ((Byte/Second))
system.mem_ctrls.dram.bwTotal::total         87885226                       # Total bandwidth to/from this memory ((Byte/Second))
system.mem_ctrls.dram.readBursts              2365346                       # Number of DRAM read bursts (Count)
system.mem_ctrls.dram.writeBursts             2172503                       # Number of DRAM write bursts (Count)
system.mem_ctrls.dram.perBankRdBursts::0       295608                       # Per bank write bursts (Count)
system.mem_ctrls.dram.perBankRdBursts::1       295597                       # Per bank write bursts (Count)
system.mem_ctrls.dram.perBankRdBursts::2       295574                       # Per bank write bursts (Count)
system.mem_ctrls.dram.perBankRdBursts::3       295530                       # Per bank write bursts (Count)
system.mem_ctrls.dram.perBankRdBursts::4       295401                       # Per bank write bursts (Count)
system.mem_ctrls.dram.perBankRdBursts::5       295879                       # Per bank write bursts (Count)
system.mem_ctrls.dram.perBankRdBursts::6       296052                       # Per bank write bursts (Count)
system.mem_ctrls.dram.perBankRdBursts::7       295705                       # Per bank write bursts (Count)
system.mem_ctrls.dram.perBankWrBursts::0       271534                       # Per bank write bursts (Count)
system.mem_ctrls.dram.perBankWrBursts::1       271646                       # Per bank write bursts (Count)
system.mem_ctrls.dram.perBankWrBursts::2       271758                       # Per bank write bursts (Count)
system.mem_ctrls.dram.perBankWrBursts::3       271668                       # Per bank write bursts (Count)
system.mem_ctrls.dram.perBankWrBursts::4       271116                       # Per bank write bursts (Count)
system.mem_ctrls.dram.perBankWrBursts::5       271928                       # Per bank write bursts (Count)
system.mem_ctrls.dram.perBankWrBursts::6       271485                       # Per bank write bursts (Count)
system.mem_ctrls.dram.perBankWrBursts::7       271368                       # Per bank write bursts (Count)
system.mem_ctrls.dram.totQLat             77810229114                       # Total ticks spent queuing (Tick)
system.mem_ctrls.dram.totBusLat           17740095000                       # Total ticks spent in databus transfers (Tick)
system.mem_ctrls.dram.totMemAccLat       131030514114                       # Total ticks spent from burst creation until serviced by the DRAM (Tick)
system.mem_ctrls.dram.avgQLat                32895.92                       # Average queueing delay per DRAM burst ((Tick/Count))
system.mem_ctrls.dram.avgBusLat               7500.00                       # Average bus latency per DRAM burst ((Tick/Count))
system.mem_ctrls.dram.avgMemAccLat           55395.92                       # Average memory access latency per DRAM burst ((Tick/Count))
system.mem_ctrls.dram.readRowHits             2073243                       # Number of row buffer hits during reads (Count)
system.mem_ctrls.dram.writeRowHits            1929973                       # Number of row buffer hits during writes (Count)
system.mem_ctrls.dram.readRowHitRate            87.65                       # Row buffer hit rate for reads (Ratio)
system.mem_ctrls.dram.writeRowHitRate           88.84                       # Row buffer hit rate for writes (Ratio)
system.mem_ctrls.dram.bytesPerActivate::samples       534628                       # Bytes accessed per row activation (Byte)
system.mem_ctrls.dram.bytesPerActivate::mean   271.610825                       # Bytes accessed per row activation (Byte)
system.mem_ctrls.dram.bytesPerActivate::gmean   199.271007                       # Bytes accessed per row activation (Byte)
system.mem_ctrls.dram.bytesPerActivate::stdev   176.148525                       # Bytes accessed per row activation (Byte)
system.mem_ctrls.dram.bytesPerActivate::0-63        22876      4.28%      4.28% # Bytes accessed per row activation (Byte)
system.mem_ctrls.dram.bytesPerActivate::64-127       132725     24.83%     29.10% # Bytes accessed per row activation (Byte)
system.mem_ctrls.dram.bytesPerActivate::128-191        63491     11.88%     40.98% # Bytes accessed per row activation (Byte)
system.mem_ctrls.dram.bytesPerActivate::192-255        31361      5.87%     46.85% # Bytes accessed per row activation (Byte)
system.mem_ctrls.dram.bytesPerActivate::256-319        16146      3.02%     49.87% # Bytes accessed per row activation (Byte)
system.mem_ctrls.dram.bytesPerActivate::320-383        62708     11.73%     61.60% # Bytes accessed per row activation (Byte)
system.mem_ctrls.dram.bytesPerActivate::384-447        57230     10.70%     72.30% # Bytes accessed per row activation (Byte)
system.mem_ctrls.dram.bytesPerActivate::448-511        52904      9.90%     82.20% # Bytes accessed per row activation (Byte)
system.mem_ctrls.dram.bytesPerActivate::512-575        95187     17.80%    100.00% # Bytes accessed per row activation (Byte)
system.mem_ctrls.dram.bytesPerActivate::total       534628                       # Bytes accessed per row activation (Byte)
system.mem_ctrls.dram.bytesRead              75691072                       # Total bytes read (Byte)
system.mem_ctrls.dram.bytesWritten           69520096                       # Total bytes written (Byte)
system.mem_ctrls.dram.avgRdBW               45.808842                       # Average DRAM read bandwidth in MiBytes/s ((Byte/Second))
system.mem_ctrls.dram.avgWrBW               42.074118                       # Average DRAM write bandwidth in MiBytes/s ((Byte/Second))
system.mem_ctrls.dram.peakBW                  4266.00                       # Theoretical peak bandwidth in MiByte/s ((Byte/Second))
system.mem_ctrls.dram.busUtil                    2.06                       # Data bus utilization in percentage (Ratio)
system.mem_ctrls.dram.busUtilRead                1.07                       # Data bus utilization in percentage for reads (Ratio)
system.mem_ctrls.dram.busUtilWrite               0.99                       # Data bus utilization in percentage for writes (Ratio)
system.mem_ctrls.dram.pageHitRate               88.22                       # Row buffer hit rate, read and write combined (Ratio)
system.mem_ctrls.dram.power_state.pwrStateResidencyTicks::UNDEFINED 3305030732500                       # Cumulative time (in ticks) in various power states (Tick)
system.mem_ctrls.dram.rank0.actEnergy    1626318300.222604                       # Energy for activate commands per rank (pJ) (Joule)
system.mem_ctrls.dram.rank0.preEnergy    572891967.513512                       # Energy for precharge commands per rank (pJ) (Joule)
system.mem_ctrls.dram.rank0.readEnergy   4062873456.297432                       # Energy for read commands per rank (pJ) (Joule)
system.mem_ctrls.dram.rank0.writeEnergy  3350156046.217864                       # Energy for write commands per rank (pJ) (Joule)
system.mem_ctrls.dram.rank0.refreshEnergy 11812580947.511015                       # Energy for refresh commands per rank (pJ) (Joule)
system.mem_ctrls.dram.rank0.actBackEnergy 17233015790.897957                       # Energy for active background per rank (pJ) (Joule)
system.mem_ctrls.dram.rank0.preBackEnergy 48581986575.590553                       # Energy for precharge background per rank (pJ) (Joule)
system.mem_ctrls.dram.rank0.actPowerDownEnergy            0                       # Energy for active power-down per rank (pJ) (Joule)
system.mem_ctrls.dram.rank0.prePowerDownEnergy            0                       # Energy for precharge power-down per rank (pJ) (Joule)
system.mem_ctrls.dram.rank0.selfRefreshEnergy            0                       # Energy for self refresh per rank (pJ) (Joule)
system.mem_ctrls.dram.rank0.totalEnergy  87239823084.638809                       # Total energy per rank (pJ) (Joule)
system.mem_ctrls.dram.rank0.averagePower    52.798238                       # Core power per rank (mW) (Watt)
system.mem_ctrls.dram.rank0.totalIdleTime            0                       # Total Idle time Per DRAM Rank (Tick)
system.mem_ctrls.dram.rank0.pwrStateTime::IDLE 1218597979003                       # Time in different power states (Tick)
system.mem_ctrls.dram.rank0.pwrStateTime::REF  55290170000                       # Time in different power states (Tick)
system.mem_ctrls.dram.rank0.pwrStateTime::SREF            0                       # Time in different power states (Tick)
system.mem_ctrls.dram.rank0.pwrStateTime::PRE_PDN            0                       # Time in different power states (Tick)
system.mem_ctrls.dram.rank0.pwrStateTime::ACT 378436373497                       # Time in different power states (Tick)
system.mem_ctrls.dram.rank0.pwrStateTime::ACT_PDN            0                       # Time in different power states (Tick)
system.mem_ctrls.power_state.pwrStateResidencyTicks::UNDEFINED 3305030732500                       # Cumulative time (in ticks) in various power states (Tick)
system.membus.transDist::ReadResp             1088757                       # Transaction distribution (Count)
system.membus.transDist::WritebackDirty       1086252                       # Transaction distribution (Count)
system.membus.transDist::CleanEvict             96407                       # Transaction distribution (Count)
system.membus.transDist::ReadExReq              93974                       # Transaction distribution (Count)
system.membus.transDist::ReadExResp             93974                       # Transaction distribution (Count)
system.membus.transDist::ReadSharedReq        1088757                       # Transaction distribution (Count)
system.membus.pktCount_system.l2.mem_side_port::system.mem_ctrls.port      3548121                       # Packet count per connected requestor and responder (Count)
system.membus.pktCount_system.l2.mem_side_port::total      3548121                       # Packet count per connected requestor and responder (Count)
system.membus.pktCount::total                 3548121                       # Packet count per connected requestor and responder (Count)
system.membus.pktSize_system.l2.mem_side_port::system.mem_ctrls.port    145214912                       # Cumulative packet size per connected requestor and responder (Byte)
system.membus.pktSize_system.l2.mem_side_port::total    145214912                       # Cumulative packet size per connected requestor and responder (Byte)
system.membus.pktSize::total                145214912                       # Cumulative packet size per connected requestor and responder (Byte)
system.membus.snoops                                0                       # Total snoops (Count)
system.membus.snoopTraffic                          0                       # Total snoop traffic (Byte)
system.membus.snoopFanout::samples            1182731                       # Request fanout histogram (Count)
system.membus.snoopFanout::mean                     0                       # Request fanout histogram (Count)
system.membus.snoopFanout::stdev                    0                       # Request fanout histogram (Count)
system.membus.snoopFanout::underflows               0      0.00%      0.00% # Request fanout histogram (Count)
system.membus.snoopFanout::0                  1182731    100.00%    100.00% # Request fanout histogram (Count)
system.membus.snoopFanout::1                        0      0.00%    100.00% # Request fanout histogram (Count)
system.membus.snoopFanout::overflows                0      0.00%    100.00% # Request fanout histogram (Count)
system.membus.snoopFanout::min_value                0                       # Request fanout histogram (Count)
system.membus.snoopFanout::max_value                0                       # Request fanout histogram (Count)
system.membus.snoopFanout::total              1182731                       # Request fanout histogram (Count)
system.membus.power_state.pwrStateResidencyTicks::UNDEFINED 3305030732500                       # Cumulative time (in ticks) in various power states (Tick)
system.membus.reqLayer2.occupancy          6855213976                       # Layer occupancy (ticks) (Tick)
system.membus.reqLayer2.utilization               0.0                       # Layer utilization (Ratio)
system.membus.respLayer1.occupancy         6005129693                       # Layer occupancy (ticks) (Tick)
system.membus.respLayer1.utilization              0.0                       # Layer utilization (Ratio)
system.membus.snoop_filter.totRequests        2365390                       # Total number of requests made to the snoop filter. (Count)
system.membus.snoop_filter.hitSingleRequests      1182661                       # Number of requests hitting in the snoop filter with a single holder of the requested data. (Count)
system.membus.snoop_filter.hitMultiRequests            0                       # Number of requests hitting in the snoop filter with multiple (>1) holders of the requested data. (Count)
system.membus.snoop_filter.totSnoops                0                       # Total number of snoops made to the snoop filter. (Count)
system.membus.snoop_filter.hitSingleSnoops            0                       # Number of snoops hitting in the snoop filter with a single holder of the requested data. (Count)
system.membus.snoop_filter.hitMultiSnoops            0                       # Number of snoops hitting in the snoop filter with multiple (>1) holders of the requested data. (Count)
system.tol2bus.transDist::ReadResp            2589811                       # Transaction distribution (Count)
system.tol2bus.transDist::WritebackDirty      3730167                       # Transaction distribution (Count)
system.tol2bus.transDist::WritebackClean           78                       # Transaction distribution (Count)
system.tol2bus.transDist::CleanEvict           236455                       # Transaction distribution (Count)
system.tol2bus.transDist::HardPFReq           1034458                       # Transaction distribution (Count)
system.tol2bus.transDist::ReadExReq            194064                       # Transaction distribution (Count)
system.tol2bus.transDist::ReadExResp           194064                       # Transaction distribution (Count)
system.tol2bus.transDist::ReadCleanReq             78                       # Transaction distribution (Count)
system.tol2bus.transDist::ReadSharedReq       2589733                       # Transaction distribution (Count)
system.tol2bus.pktCount_system.cpu.icache.mem_side_port::system.l2.cpu_side_port          234                       # Packet count per connected requestor and responder (Count)
system.tol2bus.pktCount_system.cpu.dcache.mem_side_port::system.l2.cpu_side_port      8351391                       # Packet count per connected requestor and responder (Count)
system.tol2bus.pktCount::total                8351625                       # Packet count per connected requestor and responder (Count)
system.tol2bus.pktSize_system.cpu.icache.mem_side_port::system.l2.cpu_side_port         9984                       # Cumulative packet size per connected requestor and responder (Byte)
system.tol2bus.pktSize_system.cpu.dcache.mem_side_port::system.l2.cpu_side_port    347373568                       # Cumulative packet size per connected requestor and responder (Byte)
system.tol2bus.pktSize::total               347383552                       # Cumulative packet size per connected requestor and responder (Byte)
system.tol2bus.snoops                         2217283                       # Total snoops (Count)
system.tol2bus.snoopTraffic                  69520128                       # Total snoop traffic (Byte)
system.tol2bus.snoopFanout::samples           5001158                       # Request fanout histogram (Count)
system.tol2bus.snoopFanout::mean             0.000034                       # Request fanout histogram (Count)
system.tol2bus.snoopFanout::stdev            0.005796                       # Request fanout histogram (Count)
system.tol2bus.snoopFanout::underflows              0      0.00%      0.00% # Request fanout histogram (Count)
system.tol2bus.snoopFanout::0                 5000990    100.00%    100.00% # Request fanout histogram (Count)
system.tol2bus.snoopFanout::1                     168      0.00%    100.00% # Request fanout histogram (Count)
system.tol2bus.snoopFanout::2                       0      0.00%    100.00% # Request fanout histogram (Count)
system.tol2bus.snoopFanout::3                       0      0.00%    100.00% # Request fanout histogram (Count)
system.tol2bus.snoopFanout::4                       0      0.00%    100.00% # Request fanout histogram (Count)
system.tol2bus.snoopFanout::overflows               0      0.00%    100.00% # Request fanout histogram (Count)
system.tol2bus.snoopFanout::min_value               0                       # Request fanout histogram (Count)
system.tol2bus.snoopFanout::max_value               1                       # Request fanout histogram (Count)
system.tol2bus.snoopFanout::total             5001158                       # Request fanout histogram (Count)
system.tol2bus.power_state.pwrStateResidencyTicks::UNDEFINED 3305030732500                       # Cumulative time (in ticks) in various power states (Tick)
system.tol2bus.reqLayer0.occupancy         5427868000                       # Layer occupancy (ticks) (Tick)
system.tol2bus.reqLayer0.utilization              0.0                       # Layer utilization (Ratio)
system.tol2bus.respLayer0.occupancy            117000                       # Layer occupancy (ticks) (Tick)
system.tol2bus.respLayer0.utilization             0.0                       # Layer utilization (Ratio)
system.tol2bus.respLayer1.occupancy        4175695500                       # Layer occupancy (ticks) (Tick)
system.tol2bus.respLayer1.utilization             0.0                       # Layer utilization (Ratio)
system.tol2bus.snoop_filter.totRequests       5567750                       # Total number of requests made to the snoop filter. (Count)
system.tol2bus.snoop_filter.hitSingleRequests      2783875                       # Number of requests hitting in the snoop filter with a single holder of the requested data. (Count)
system.tol2bus.snoop_filter.hitMultiRequests            2                       # Number of requests hitting in the snoop filter with multiple (>1) holders of the requested data. (Count)
system.tol2bus.snoop_filter.totSnoops             166                       # Total number of snoops made to the snoop filter. (Count)
system.tol2bus.snoop_filter.hitSingleSnoops          166                       # Number of snoops hitting in the snoop filter with a single holder of the requested data. (Count)
system.tol2bus.snoop_filter.hitMultiSnoops            0                       # Number of snoops hitting in the snoop filter with multiple (>1) holders of the requested data. (Count)
system.voltage_domain.voltage                       1                       # Voltage in Volts (Volt)
system.workload.inst.arm                            0                       # number of arm instructions executed (Count)
system.workload.inst.quiesce                        0                       # number of quiesce instructions executed (Count)
system.cpu.idleCycles                       179617560                       # Total number of cycles that the object has spent stopped (Unspecified)
system.cpu.tickCycles                      3125031445                       # Number of cycles that the object actually ticked (Unspecified)

---------- End Simulation Statistics   ----------
